   19
 
C       2.9336549999999999    0.1176360000000000    0.0000610000000000
C       1.5539490000000000   -0.3970860000000000   -0.0006100000000000
C       0.5145450000000000    0.4646960000000000    0.0004540000000000
C      -0.9099020000000000    0.1543780000000000    0.0002300000000000
C      -1.8280940000000001    1.2242430000000000    0.0014150000000000
C      -3.2029930000000002    0.9931360000000000    0.0013610000000000
C      -3.6893460000000000   -0.3164460000000000    0.0001110000000000
C      -2.7911999999999999   -1.3916710000000001   -0.0010800000000000
C      -1.4192460000000000   -1.1619569999999999   -0.0010200000000000
O       3.2760769999999999    1.2879240000000001    0.0016020000000000
O       3.8448639999999998   -0.9076100000000000   -0.0012470000000000
H       1.4331650000000000   -1.4807010000000000   -0.0019070000000000
H       0.7718140000000000    1.5292399999999999    0.0016990000000000
H      -1.4459000000000000    2.2469990000000002    0.0023950000000000
H      -3.8959050000000000    1.8353569999999999    0.0022880000000000
H      -4.7640700000000002   -0.5022630000000000    0.0000790000000000
H      -3.1681560000000002   -2.4152070000000001   -0.0019930000000000
H      -0.7347540000000000   -2.0111870000000001   -0.0019040000000000
H       4.7209960000000004   -0.4756790000000000   -0.0006340000000000
