   46
 
C       0.9522370000000000   -0.7660830000000000   -0.5799800000000001
C      -0.9879340000000000    0.1286820000000000    0.5372330000000000
C       2.9998580000000001    0.6400940000000001   -1.0548530000000000
C      -1.1374960000000001    2.5567129999999998    1.2307319999999999
C       5.2541700000000002   -1.5186869999999999   -0.8655130000000000
C      -4.2154670000000003    2.4748540000000001    0.7137790000000001
C      -3.8125520000000002    4.1146960000000004   -1.1811149999999999
C       5.9369310000000004   -0.4236490000000000    1.3197140000000001
H       2.3147310000000001    2.7923450000000001   -0.2740460000000000
C       1.5871409999999999    0.4735670000000000   -0.5241300000000000
C      -0.3959360000000000    1.3829039999999999    0.6165790000000000
C       0.8965270000000000    1.5466489999999999    0.0719980000000000
C      -0.3409970000000000   -0.9695210000000000   -0.0652300000000000
O      -1.9910330000000001   -4.9591229999999999   -0.5116220000000000
O       1.4438210000000000    2.8006329999999999    0.1564930000000000
O      -3.9343050000000002   -4.2157980000000004    0.3916260000000000
C      -2.6371110000000000   -4.0420790000000002   -0.0292760000000000
C       5.0052060000000003   -0.4214850000000000    0.1351460000000000
C      -3.2207889999999999    3.3023950000000002   -0.0579340000000000
H      -4.1376689999999998   -5.1536510000000000    0.2107920000000000
C      -2.1910460000000000   -2.6609440000000002    0.1820840000000000
C      -0.9451570000000000   -2.2837399999999999   -0.1868000000000000
C      -1.8981429999999999    3.3355079999999999    0.1845900000000000
C       4.0382210000000001    0.5078490000000000    0.0332990000000000
H      -2.9096510000000002   -1.9768840000000001    0.6342030000000000
H      -0.3206830000000000   -3.0605389999999999   -0.6407430000000000
H      -1.2763920000000000    3.9590459999999998   -0.4657350000000000
H       3.9569779999999999    1.2360800000000001    0.8482530000000000
H       1.4762430000000000   -1.6074679999999999   -1.0401540000000000
H      -1.9888500000000000    0.0056860000000000    0.9548630000000000
H       3.1630170000000000   -0.1008610000000000   -1.8477870000000001
H       3.1090399999999998    1.6191059999999999   -1.5633850000000000
H      -1.8126910000000001    2.1737820000000001    2.0074670000000001
H      -0.4180650000000000    3.2230470000000002    1.7287090000000001
H       6.2789979999999996   -1.4531780000000001   -1.2648729999999999
H       5.1730380000000000   -2.5049690000000000   -0.3809810000000000
H       4.5624000000000002   -1.5058480000000001   -1.7154140000000000
H      -5.0476820000000000    3.1006540000000000    1.0737710000000000
H      -4.6644980000000000    1.7065920000000001    0.0626770000000000
H      -3.7800579999999999    1.9637030000000000    1.5801130000000001
H      -3.0448130000000000    4.6855560000000001   -1.7187630000000000
H      -4.3299740000000000    3.4659529999999998   -1.9071810000000000
H      -4.5684209999999998    4.8235989999999997   -0.8045400000000000
H       5.8680599999999998   -1.3749769999999999    1.8721369999999999
H       6.9867109999999997   -0.3255840000000000    0.9986010000000000
H       5.7129849999999998    0.3936730000000000    2.0167980000000001
