  203
 
C       4.4776230000000004    0.7905670000000000   11.5934200000000001
C       4.3884249999999998   -0.6643180000000000    9.6701339999999991
C       2.4476840000000002    2.0458940000000001   12.4315460000000009
C       2.2685960000000001   -0.9713600000000000    8.3162439999999993
C       3.0386730000000002    2.1432739999999999   15.5053979999999996
C       4.0351049999999997   -1.3688750000000001    5.7511440000000000
C       3.1592690000000001    0.8591110000000000    4.9742369999999996
C       1.1702790000000001    0.4478200000000000   15.7827999999999999
H       0.7995160000000000    1.4685859999999999   10.7911529999999996
C       3.1311239999999998    1.1202190000000001   11.4389900000000004
C       3.0429460000000002   -0.3707160000000000    9.4792480000000001
C       2.4245839999999999    0.5372950000000000   10.3678290000000004
C       5.1389259999999997   -0.0918410000000000   10.7187330000000003
O       9.3499309999999998   -0.7789640000000000   11.5165179999999996
O       1.1003810000000001    0.8166010000000000   10.1335540000000002
O       9.4581739999999996   -2.0609860000000002    9.6423310000000004
C       8.7871839999999999   -1.2695090000000000   10.5473839999999992
C       1.9759800000000001    1.3070770000000000   14.8415320000000008
C       3.1252819999999999   -0.2029000000000000    6.0296570000000003
H      10.3798460000000006   -2.0966619999999998    9.9728189999999994
C       7.3754220000000004   -1.1216940000000000   10.1748750000000001
C       6.5504590000000000   -0.3612390000000000   10.9327129999999997
C       2.3313860000000002   -0.0642870000000000    7.1109570000000000
C       1.7264269999999999    1.2837820000000000   13.5183959999999992
H       7.0489699999999997   -1.6396500000000001    9.2726830000000007
H       7.0059300000000002    0.1147180000000000   11.8077579999999998
H       1.7224910000000000    0.8435640000000000    7.1831329999999998
H       0.9364000000000000    0.6078540000000000   13.1712450000000008
H       5.0384599999999997    1.2340570000000000   12.4199350000000006
H       4.8671519999999999   -1.3592150000000001    8.9781110000000002
H       3.2039520000000001    2.7182480000000000   12.8571310000000008
H       1.7415860000000001    2.7217989999999999   11.9093929999999997
H       2.6887750000000001   -1.9603950000000001    8.0899990000000006
H       1.2212909999999999   -1.1230240000000000    8.6156900000000007
H       2.5887829999999998    2.8184380000000000   16.2512590000000010
H       3.7446240000000000    1.4992460000000001   16.0542489999999987
H       3.6187849999999999    2.7565860000000000   14.8063319999999994
H       3.8026110000000002   -1.7949150000000000    4.7591919999999996
H       5.0846530000000003   -1.0331870000000001    5.7095929999999999
H       3.9649000000000001   -2.1704249999999998    6.4955670000000003
H       2.4545819999999998    1.6796840000000000    5.1807280000000002
H       4.1645120000000002    1.2890079999999999    4.8351080000000000
H       2.8991530000000001    0.4276140000000000    3.9770150000000002
H       1.8228240000000000   -0.2497710000000000   16.3329330000000006
H       0.6599290000000000    1.0637410000000000   16.5412840000000010
H       0.4117100000000000   -0.1406100000000000   15.2507129999999993
Fe     -5.3673029999999997   -4.3360550000000000   -7.3398729999999999
Fe     -5.4314600000000004   -4.4015009999999997   -4.6020490000000001
Fe     -5.4332029999999998   -4.4034959999999996   -1.9119690000000000
Fe     -5.3761710000000003   -4.3445260000000001    0.8271090000000000
Fe     -5.4326429999999997   -1.5993480000000000   -7.4050060000000002
Fe     -6.7963449999999996   -2.9380730000000002   -5.9406770000000000
Fe     -5.4288449999999999   -1.5878850000000000   -4.5913370000000002
Fe     -6.8696330000000003   -2.9026060000000000   -3.2533430000000001
Fe     -5.4348210000000003   -1.5897720000000000   -1.8877740000000001
Fe     -6.8202059999999998   -2.9575130000000001   -0.5818780000000000
Fe     -5.4934560000000001   -1.6168130000000001    0.9084470000000000
Fe     -5.4342990000000002    1.0909599999999999   -7.4073140000000004
Fe     -6.8698399999999999   -0.2497650000000000   -5.9051770000000001
Fe     -5.4343300000000001    1.1171160000000000   -4.5945260000000001
Fe     -6.9585210000000002   -0.2505200000000000   -3.2561760000000000
Fe     -5.4407740000000002    1.1161970000000001   -1.8907190000000000
Fe     -6.8891400000000003   -0.2501270000000000   -0.5973130000000000
Fe     -5.4964480000000000    1.1145560000000001    0.9065540000000000
Fe     -5.3769600000000004    3.8286780000000000   -7.3509940000000000
Fe     -6.8208050000000000    2.4228679999999998   -5.9609150000000000
Fe     -5.4932460000000001    3.9145260000000000   -4.6242960000000002
Fe     -6.8905830000000003    2.4088840000000000   -3.2569539999999999
Fe     -5.4963090000000001    3.9155350000000002   -1.8954670000000000
Fe     -6.8547099999999999    2.4311060000000002   -0.5785740000000000
Fe     -5.4191859999999998    3.8450080000000000    0.8330590000000000
Fe     -2.6299169999999998   -4.4001809999999999   -7.4040039999999996
Fe     -3.9677140000000000   -5.7650370000000004   -5.9403400000000000
Fe     -2.6184200000000000   -4.3967710000000002   -4.5903499999999999
Fe     -3.9315920000000002   -5.8385689999999997   -3.2521279999999999
Fe     -2.6204700000000001   -4.4014850000000001   -1.8849220000000000
Fe     -3.9867780000000002   -5.7867930000000003   -0.5778260000000000
Fe     -2.6489530000000001   -4.4566819999999998    0.9136390000000000
Fe     -3.9684710000000001   -2.9372569999999998   -8.7690970000000004
Fe     -2.6188859999999998   -1.5873569999999999   -7.4005130000000001
Fe     -4.0141260000000001   -2.9826850000000000   -5.9862430000000000
Fe     -2.6315450000000000   -1.5995770000000000   -4.6031829999999996
Fe     -4.0211790000000001   -2.9903249999999999   -3.2381790000000001
Fe     -2.6324169999999998   -1.5987020000000001   -1.8439260000000000
Fe     -4.0310870000000003   -2.9971809999999999   -0.4898510000000000
Fe     -2.6590750000000001   -1.6240570000000001    0.9190290000000000
Fe     -4.0014969999999996   -2.9649570000000001    2.3183370000000001
Fe     -2.5987420000000001   -1.5594530000000000    3.7266260000000000
Fe     -3.9338950000000001   -0.2501440000000000   -8.8421780000000005
Fe     -2.6210070000000001    1.1168860000000000   -7.4063860000000004
Fe     -4.0216479999999999   -0.2347800000000000   -5.9939570000000000
Fe     -2.6321420000000000    1.1611720000000001   -4.6038699999999997
Fe     -3.9808110000000001   -0.2262050000000000   -3.2313410000000000
Fe     -2.6375250000000001    1.1618409999999999   -1.8470510000000000
Fe     -4.0488239999999998   -0.2348810000000000   -0.4673880000000000
Fe     -2.6647370000000001    1.1584630000000000    0.9177230000000000
Fe     -4.0682570000000000   -0.2458500000000000    2.3395579999999998
Fe     -2.6125669999999999    1.0776530000000000    3.7302240000000002
Fe     -3.9870510000000001    2.4225840000000001   -8.7934310000000000
Fe     -2.6492010000000001    3.9140510000000002   -7.4650829999999999
Fe     -4.0304710000000004    2.5137740000000002   -6.0036529999999999
Fe     -2.6577510000000002    3.9244919999999999   -4.6309860000000000
Fe     -4.0478969999999999    2.5399060000000002   -3.2425079999999999
Fe     -2.6635460000000002    3.9295960000000001   -1.8525410000000000
Fe     -4.0571029999999997    2.5317050000000001   -0.4788190000000000
Fe     -2.6765370000000002    3.9771679999999998    0.9583020000000000
Fe     -4.0313780000000001    2.4746480000000002    2.3184879999999999
Fe     -4.0011310000000000    5.3209970000000002   -5.9752190000000001
Fe     -2.5997949999999999    6.7289899999999996   -4.5754979999999996
Fe     -4.0666830000000003    5.3479029999999996   -3.2558229999999999
Fe     -2.6103179999999999    6.7398309999999997   -1.9388320000000001
Fe     -4.0323110000000000    5.3324660000000002   -0.5402640000000000
Fe      0.0605920000000000   -4.4015969999999998   -7.4041079999999999
Fe     -1.2800009999999999   -5.8370259999999998   -5.9044200000000000
Fe      0.0864130000000000   -4.4009309999999999   -4.5901519999999998
Fe     -1.2818250000000000   -5.9225719999999997   -3.2522840000000000
Fe      0.0852440000000000   -4.4052100000000003   -1.8835569999999999
Fe     -1.2805750000000000   -5.8524830000000003   -0.5878760000000000
Fe      0.0815570000000000   -4.4560700000000004    0.9161470000000000
Fe     -1.2800320000000001   -2.9011230000000001   -8.8407780000000002
Fe      0.0857500000000000   -1.5887430000000000   -7.4039159999999997
Fe     -1.2658959999999999   -2.9896810000000000   -5.9923359999999999
Fe      0.1288930000000000   -1.5984200000000000   -4.6014949999999999
Fe     -1.2576920000000000   -2.9474469999999999   -3.2284160000000002
Fe      0.1264300000000000   -1.6010359999999999   -1.8434250000000001
Fe     -1.2686320000000000   -3.0128170000000001   -0.4637600000000000
Fe      0.1177720000000000   -1.6252000000000000    0.9217080000000000
Fe     -1.2787200000000001   -3.0266160000000002    2.3487540000000000
Fe      0.0370490000000000   -1.5606730000000000    3.7373609999999999
Fe     -1.2820419999999999   -0.2514910000000000   -8.9285739999999993
Fe      0.0839550000000000    1.1160890000000001   -7.4095469999999999
Fe     -1.2585450000000000   -0.2260850000000000   -5.9513520000000000
Fe      0.1277890000000000    1.1609290000000001   -4.6060619999999997
Fe     -1.2454660000000000   -0.2107750000000000   -3.2174969999999998
Fe      0.1243880000000000    1.1619409999999999   -1.8466680000000000
Fe     -1.2629940000000000   -0.2249710000000000   -0.4823900000000000
Fe      0.1097820000000000    1.1591750000000001    0.9169000000000000
Fe     -1.2812800000000000   -0.2371570000000000    2.2911940000000000
Fe      0.0096760000000000    1.0867329999999999    3.7380659999999999
Fe     -1.2812900000000000    2.4089809999999998   -8.8599049999999995
Fe      0.0813600000000000    3.9143580000000000   -7.4652149999999997
Fe     -1.2678920000000000    2.5391349999999999   -6.0181990000000001
Fe      0.1231940000000000    3.9274170000000002   -4.6312550000000003
Fe     -1.2599650000000000    2.5271509999999999   -3.2320899999999999
Fe      0.1181440000000000    3.9355730000000002   -1.8530139999999999
Fe     -1.2752079999999999    2.5654480000000000   -0.4490960000000000
Fe      0.0926340000000000    3.9767399999999999    0.9539400000000000
Fe     -1.2952170000000001    2.5494750000000002    2.3557570000000001
Fe     -1.2794319999999999    5.3464070000000001   -6.0382860000000003
Fe      0.0385150000000000    6.7375889999999998   -4.5799669999999999
Fe     -1.2754310000000000    5.3017240000000001   -3.2487659999999998
Fe      0.0379560000000000    6.7556370000000001   -1.9353560000000001
Fe     -1.2885130000000000    5.3765090000000004   -0.4702820000000000
Fe      2.7979949999999998   -4.3433669999999998   -7.3458150000000000
Fe      1.3920200000000000   -5.7867080000000000   -5.9564779999999997
Fe      2.8826309999999999   -4.4571030000000000   -4.6170499999999999
Fe      1.3808000000000000   -5.8517599999999996   -3.2483089999999999
Fe      2.8833639999999998   -4.4565169999999998   -1.8833730000000000
Fe      1.4013439999999999   -5.8121369999999999   -0.5628990000000000
Fe      2.8122620000000000   -4.3700590000000004    0.8489210000000000
Fe      1.3917160000000000   -2.9544940000000000   -8.7902500000000003
Fe      2.8825449999999999   -1.6161500000000000   -7.4613920000000000
Fe      1.4825370000000000   -2.9968800000000000   -5.9995099999999999
Fe      2.8916759999999999   -1.6226959999999999   -4.6254999999999997
Fe      1.5076950000000000   -3.0120670000000000   -3.2359800000000001
Fe      2.8935870000000001   -1.6231930000000001   -1.8447979999999999
Fe      1.4973719999999999   -3.0146069999999998   -0.4691750000000000
Fe      2.9329230000000002   -1.6255070000000000    0.9696399999999999
Fe      1.4362820000000001   -2.9803980000000001    2.3278170000000000
Fe      1.3779180000000000   -0.2495430000000000   -8.8583020000000001
Fe      2.8821819999999998    1.1141570000000001   -7.4632209999999999
Fe      1.5068820000000001   -0.2346540000000000   -6.0162659999999999
Fe      2.8935510000000000    1.1571730000000000   -4.6294320000000004
Fe      1.4922519999999999   -0.2246890000000000   -3.2290410000000001
Fe      2.8969040000000001    1.1575860000000000   -1.8497010000000000
Fe      1.5242540000000000   -0.2328160000000000   -0.4459820000000000
Fe      2.9245760000000001    1.1437880000000000    0.9530729999999999
Fe      1.4880530000000001   -0.2395840000000000    2.3470849999999999
Fe      1.3982840000000001    2.4301640000000000   -8.8224380000000000
Fe      2.8097530000000002    3.8431190000000002   -7.3844709999999996
Fe      1.4971220000000001    2.5304700000000002   -6.0236539999999996
Fe      2.9374509999999998    3.9717050000000000   -4.6376710000000001
Fe      1.5278339999999999    2.5628229999999999   -3.2407949999999999
Fe      2.9328959999999999    3.9693930000000002   -1.8687210000000001
Fe      1.5081810000000000    2.5523490000000000   -0.4625540000000000
Fe      2.8321220000000000    3.8744630000000000    0.8638280000000000
Fe      1.4249639999999999    2.4964919999999999    2.3189519999999999
Fe      1.4373060000000000    5.3280370000000001   -5.9968230000000000
Fe      1.5076280000000000    5.3725319999999996   -3.2534200000000002
Fe      1.4466650000000001    5.3483950000000000   -0.5224970000000000
Fe      4.2889860000000004   -2.9661550000000001   -5.9689100000000002
Fe      5.6944590000000002   -1.5641099999999999   -4.5668220000000002
Fe      4.3142860000000001   -3.0288210000000002   -3.2460800000000001
Fe      5.7033719999999999   -1.5696440000000000   -1.9264730000000001
Fe      4.2949500000000000   -2.9849340000000000   -0.5270520000000000
Fe      4.3136830000000002   -0.2456630000000000   -6.0333660000000000
Fe      5.7028990000000004    1.0744819999999999   -4.5761229999999999
Fe      4.2667469999999996   -0.2383510000000000   -3.2423120000000001
Fe      5.7186029999999999    1.0766439999999999   -1.9281079999999999
Fe      4.3350559999999998   -0.2430710000000000   -0.4602990000000000
Fe      4.2945000000000002    2.4713550000000000   -5.9950169999999998
Fe      4.3372590000000004    2.5431889999999999   -3.2518400000000001
Fe      4.3086799999999998    2.4856509999999998   -0.5212430000000000
