  203
 
C      -0.3242630000000000    6.5068500000000000   -7.1302269999999996
C      -1.6193940000000000    6.5131019999999999   -5.0971620000000000
C       2.1568410000000000    5.9877510000000003   -7.1426330000000000
C      -0.5495870000000000    6.0707709999999997   -2.8609939999999998
C       2.4337830000000000    4.6621150000000000   -9.9483189999999997
C      -2.6124230000000002    7.9437559999999996   -1.4712970000000001
C      -0.6529890000000000    9.4457090000000008   -0.8734130000000000
C       2.7423920000000002    2.4511780000000001   -8.7317859999999996
H       2.6125060000000002    5.6311140000000002   -4.8030809999999997
C       0.8406110000000000    6.2047090000000003   -6.4216080000000000
C      -0.4828230000000000    6.2205409999999999   -4.3561750000000004
C       0.7484870000000000    6.0645249999999997   -5.0253589999999999
C      -1.5700630000000000    6.6772270000000002   -6.4962299999999997
O      -4.9413429999999998    7.7562879999999996   -9.0088679999999997
O       1.8317990000000000    5.7689089999999998   -4.2373260000000004
O      -6.2311949999999996    7.9079059999999997   -7.1425570000000000
C      -5.0420049999999996    7.6633050000000003   -7.7936820000000004
C       2.5221779999999998    3.9388320000000001   -8.6289899999999999
C      -1.1226130000000001    8.1661260000000002   -1.5152289999999999
H      -6.8638159999999999    8.1415150000000001   -7.8531940000000002
C      -3.9838510000000000    7.3003520000000002   -6.8442710000000000
C      -2.7329059999999998    7.0340400000000001   -7.2902810000000002
C      -0.2400690000000000    7.3372570000000001   -2.1130230000000001
C       2.4110719999999999    4.5260290000000003   -7.4228230000000002
H      -4.2615759999999998    7.2691610000000004   -5.7901740000000004
H      -2.5821250000000000    7.1095610000000002   -8.3721560000000004
H       0.8163950000000000    7.6270119999999997   -2.1100960000000000
H       2.4630310000000000    3.8761839999999999   -6.5399539999999998
H      -0.2625970000000000    6.6228319999999998   -8.2150280000000002
H      -2.5644689999999999    6.6208460000000002   -4.5629799999999996
H       2.1492410000000000    6.5725889999999998   -8.0712899999999994
H       2.9909710000000000    6.4145209999999997   -6.5517519999999996
H      -1.5367230000000001    5.6689119999999997   -2.5890149999999998
H       0.2063530000000000    5.3012550000000003   -2.5677200000000000
H       3.3574619999999999    4.5218569999999998  -10.5324849999999994
H       1.6130180000000001    4.2488060000000001  -10.5564699999999991
H       2.2633500000000000    5.7404520000000003   -9.8484979999999993
H      -2.9909720000000002    8.0362299999999998   -0.4402730000000000
H      -3.1324770000000002    8.7153200000000002   -2.0637900000000000
H      -2.9229609999999999    6.9636279999999999   -1.8552709999999999
H       0.4342530000000000    9.5685310000000001   -0.9577280000000000
H      -1.1315940000000000   10.3130330000000008   -1.3587520000000000
H      -0.9290070000000000    9.4926130000000004    0.1923530000000000
H       1.9294650000000000    1.9726600000000001   -9.3020650000000007
H       3.6776710000000001    2.2270059999999998   -9.2703760000000006
H       2.7919420000000001    1.9780089999999999   -7.7417819999999997
Fe     -4.1492480000000000   -6.1301050000000004   -2.6204559999999999
Fe     -4.2127629999999998   -6.1961459999999997    0.1152860000000000
Fe     -4.2136779999999998   -6.2021839999999999    2.8006869999999999
Fe     -4.1615599999999997   -6.1526759999999996    5.5375220000000001
Fe     -4.2120300000000004   -3.3915940000000000   -2.6838229999999998
Fe     -5.5792010000000003   -4.7307829999999997   -1.2212950000000000
Fe     -4.2115159999999996   -3.3850730000000002    0.1268000000000000
Fe     -5.6584269999999997   -4.6926670000000001    1.4640180000000000
Fe     -4.2156409999999997   -3.3940260000000002    2.8295859999999999
Fe     -5.6057119999999996   -4.7591279999999996    4.1296580000000001
Fe     -4.2761519999999997   -3.4235250000000002    5.6257320000000002
Fe     -4.2113649999999998   -0.7025300000000000   -2.6848640000000001
Fe     -5.6564050000000003   -2.0418050000000001   -1.1781299999999999
Fe     -4.2168599999999996   -0.6839520000000000    0.1271590000000000
Fe     -5.7590880000000002   -2.0622460000000000    1.4601610000000000
Fe     -4.2244979999999996   -0.6953700000000000    2.8329719999999998
Fe     -5.6806859999999997   -2.0599569999999998    4.1085609999999999
Fe     -4.2818569999999996   -0.7014940000000000    5.6301610000000002
Fe     -4.1516900000000003    2.0424069999999999   -2.6287400000000001
Fe     -5.5989620000000002    0.6288899999999999   -1.2403800000000000
Fe     -4.2828189999999999    2.1069480000000000    0.1162140000000000
Fe     -5.6829489999999998    0.5774030000000000    1.4710920000000001
Fe     -4.2895550000000000    2.0961729999999998    2.8399470000000000
Fe     -5.6470929999999999    0.6073229999999999    4.1454120000000003
Fe     -4.2085119999999998    2.0273930000000000    5.5695300000000003
Fe     -1.4137999999999999   -6.1933730000000002   -2.6850619999999998
Fe     -2.7498269999999998   -7.5623870000000002   -1.2218150000000001
Fe     -1.4028680000000000   -6.1928970000000003    0.1252160000000000
Fe     -2.7046540000000001   -7.6442500000000004    1.4610790000000000
Fe     -1.4043129999999999   -6.2021629999999996    2.8268290000000000
Fe     -2.7682060000000002   -7.5933789999999997    4.1265989999999997
Fe     -1.4312450000000001   -6.2645109999999997    5.6225889999999996
Fe     -2.7493930000000000   -4.7296269999999998   -4.0507169999999997
Fe     -1.4031340000000001   -3.3805930000000002   -2.6813600000000002
Fe     -2.7989780000000000   -4.7794800000000004   -1.2699920000000000
Fe     -1.4151190000000000   -3.3960140000000001    0.1150670000000000
Fe     -2.8055539999999999   -4.7903380000000002    1.4779040000000001
Fe     -1.4143079999999999   -3.4013529999999998    2.8764349999999999
Fe     -2.8160560000000001   -4.8052479999999997    4.2269079999999999
Fe     -1.4402140000000001   -3.4309370000000001    5.6383640000000002
Fe     -2.7868369999999998   -4.7784230000000001    7.0323979999999997
Fe     -1.3864280000000000   -3.3802319999999999    8.4407850000000000
Fe     -2.7048610000000002   -2.0439210000000001   -4.1282740000000002
Fe     -1.4041939999999999   -0.6741170000000000   -2.6864439999999998
Fe     -2.8051420000000000   -2.0302419999999999   -1.2752310000000000
Fe     -1.4158720000000000   -0.6339240000000000    0.1186210000000000
Fe     -2.7626369999999998   -2.0291589999999999    1.4885980000000001
Fe     -1.4184690000000000   -0.6435060000000000    2.8802020000000002
Fe     -2.8316439999999998   -2.0428160000000002    4.2547050000000004
Fe     -1.4445300000000001   -0.6523150000000000    5.6467980000000004
Fe     -2.8484289999999999   -2.0586720000000001    7.0616529999999997
Fe     -1.3936139999999999   -0.7368520000000000    8.4525050000000004
Fe     -2.7651889999999999    0.6264250000000000   -4.0765520000000004
Fe     -1.4416580000000001    2.1251229999999999   -2.7354669999999999
Fe     -2.8168639999999998    0.7196280000000000   -1.2803180000000001
Fe     -1.4444630000000001    2.1252680000000002    0.1036110000000000
Fe     -2.8351030000000002    0.7327050000000001    1.4881009999999999
Fe     -1.4486360000000000    2.1192099999999998    2.8853490000000002
Fe     -2.8440940000000001    0.7201950000000000    4.2534910000000004
Fe     -1.4543580000000000    2.1603450000000000    5.6959249999999999
Fe     -2.8147609999999998    0.6575380000000000    7.0495700000000001
Fe     -2.8015949999999998    3.5130210000000002   -1.2153470000000000
Fe     -1.4061049999999999    4.9243620000000004    0.2108770000000000
Fe     -2.8589869999999999    3.5345030000000000    1.4934170000000000
Fe     -1.3997930000000001    4.9321859999999997    2.8098839999999998
Fe     -2.8224999999999998    3.5112589999999999    4.2036340000000001
Fe      1.2683380000000000   -6.1932650000000002   -2.6877890000000000
Fe     -0.0670700000000000   -7.6418109999999997   -1.1779770000000001
Fe      1.2963519999999999   -6.1966859999999997    0.1223060000000000
Fe     -0.0733370000000000   -7.7423159999999998    1.4530870000000000
Fe      1.2960650000000000   -6.2067829999999997    2.8245830000000001
Fe     -0.0660030000000000   -7.6647369999999997    4.1038079999999999
Fe      1.2938380000000000   -6.2685610000000000    5.6226190000000003
Fe     -0.0689530000000000   -4.6842030000000001   -4.1316940000000004
Fe      1.2939369999999999   -3.3803310000000000   -2.6877770000000001
Fe     -0.0529720000000000   -4.7847939999999998   -1.2770150000000000
Fe      1.3435100000000000   -3.3951440000000002    0.1140990000000000
Fe     -0.0437970000000000   -4.7451809999999996    1.4856229999999999
Fe      1.3445490000000000   -3.4022199999999998    2.8743349999999999
Fe     -0.0515030000000000   -4.8185849999999997    4.2512249999999998
Fe      1.3402660000000000   -3.4329740000000002    5.6413099999999998
Fe     -0.0646310000000000   -4.8390829999999996    7.0575440000000000
Fe      1.2581150000000001   -3.3866380000000000    8.4485259999999993
Fe     -0.0759690000000000   -2.0427309999999999   -4.2254860000000001
Fe      1.2918440000000000   -0.6727470000000000   -2.6961050000000002
Fe     -0.0451800000000000   -2.0192649999999999   -1.2327250000000001
Fe      1.3423449999999999   -0.6331220000000000    0.1121780000000000
Fe     -0.0273110000000000   -2.0109050000000002    1.5026370000000000
Fe      1.3442950000000000   -0.6407790000000000    2.8777320000000000
Fe     -0.0408140000000000   -2.0296580000000000    4.2400320000000002
Fe      1.3402130000000001   -0.6508530000000000    5.6535399999999996
Fe     -0.0572170000000000   -2.0497190000000001    7.0186640000000002
Fe      1.2604489999999999   -0.7342590000000000    8.4665110000000006
Fe     -0.0711190000000000    0.6273190000000000   -4.1493929999999999
Fe      1.2843240000000000    2.1356380000000001   -2.7514940000000001
Fe     -0.0539020000000000    0.7514560000000000   -1.2991079999999999
Fe      1.3355619999999999    2.1359119999999998    0.0918170000000000
Fe     -0.0413240000000000    0.7225960000000000    1.4956929999999999
Fe      1.3397239999999999    2.1303019999999999    2.8796149999999998
Fe     -0.0526290000000000    0.7572000000000000    4.2853870000000001
Fe      1.3202499999999999    2.1594150000000001    5.6913689999999999
Fe     -0.0654000000000000    0.7304790000000000    7.0915640000000000
Fe     -0.0772120000000000    3.5464620000000000   -1.2906500000000001
Fe      1.2543299999999999    4.9349660000000002    0.1725210000000000
Fe     -0.0626820000000000    3.4939330000000002    1.4917910000000001
Fe      1.2504070000000000    4.9478700000000000    2.8032040000000000
Fe     -0.0680120000000000    3.5621619999999998    4.2695900000000000
Fe      4.0018459999999996   -6.1405810000000001   -2.6364090000000000
Fe      2.5948760000000002   -7.5856149999999998   -1.2432270000000001
Fe      4.0892569999999999   -6.2559639999999996    0.0933930000000000
Fe      2.5730029999999999   -7.6602850000000000    1.4598100000000001
Fe      4.0918310000000000   -6.2644700000000002    2.8194070000000000
Fe      2.6042760000000000   -7.6263189999999996    4.1311710000000001
Fe      4.0234730000000001   -6.1898049999999998    5.5508259999999998
Fe      2.5920589999999999   -4.7457019999999996   -4.0782970000000001
Fe      4.0865749999999998   -3.4083079999999999   -2.7495569999999998
Fe      2.6919029999999999   -4.7944810000000002   -1.2898160000000001
Fe      4.1018580000000000   -3.4201100000000002    0.0851900000000000
Fe      2.7195659999999999   -4.8142950000000004    1.4754350000000001
Fe      4.1097169999999998   -3.4294639999999998    2.8669039999999999
Fe      2.7128399999999999   -4.8268240000000002    4.2414019999999999
Fe      4.1535979999999997   -3.4403790000000001    5.6812259999999997
Fe      2.6533490000000000   -4.8022260000000001    7.0391729999999999
Fe      2.5691519999999999   -2.0404670000000000   -4.1491140000000000
Fe      4.0850700000000000   -0.6781800000000000   -2.7561030000000000
Fe      2.7161270000000002   -2.0271230000000000   -1.3050960000000000
Fe      4.1061820000000004   -0.6377960000000000    0.0821510000000000
Fe      2.7056460000000002   -2.0228920000000001    1.4870239999999999
Fe      4.1175249999999997   -0.6460870000000000    2.8692259999999998
Fe      2.7469660000000000   -2.0396269999999999    4.2768889999999997
Fe      4.1513169999999997   -0.6708170000000000    5.6823430000000004
Fe      2.7242869999999999   -2.0568279999999999    7.0858420000000004
Fe      2.5928239999999998    0.6439589999999999   -4.1137410000000001
Fe      4.0067139999999997    2.0536279999999998   -2.6788069999999999
Fe      2.7052470000000000    0.7411390000000000   -1.3108820000000001
Fe      4.1461949999999996    2.1754929999999999    0.0793400000000000
Fe      2.7448619999999999    0.7645280000000000    1.4793769999999999
Fe      4.1499040000000003    2.1632199999999999    2.8556539999999999
Fe      2.7343080000000000    0.7447230000000000    4.2691280000000003
Fe      4.0609469999999996    2.0694990000000000    5.5956570000000001
Fe      2.6712340000000001    0.6770020000000000    7.0670000000000002
Fe      2.6428989999999999    3.5434600000000001   -1.2765329999999999
Fe      2.7207870000000001    3.5676749999999999    1.4762040000000001
Fe      2.6690589999999998    3.5402960000000001    4.2102300000000001
Fe      5.4948249999999996   -4.7652510000000001   -1.2618419999999999
Fe      6.9022069999999998   -3.3663919999999998    0.1367550000000000
Fe      5.5235050000000001   -4.8311529999999996    1.4593860000000001
Fe      6.9136189999999997   -3.3803200000000002    2.7820920000000000
Fe      5.5092879999999997   -4.8002349999999998    4.1791000000000000
Fe      5.5193230000000000   -2.0412859999999999   -1.3246970000000000
Fe      6.9078460000000002   -0.7203940000000000    0.1278640000000000
Fe      5.4810910000000002   -2.0401009999999999    1.4677240000000000
Fe      6.9287179999999999   -0.7255250000000000    2.7830520000000001
Fe      5.5544560000000001   -2.0532859999999999    4.2503960000000003
Fe      5.4998040000000001    0.6803760000000000   -1.2892859999999999
Fe      5.5492239999999997    0.7418350000000000    1.4623159999999999
Fe      5.5307919999999999    0.6802240000000001    4.1995459999999998
