  203
 
C      -4.4691590000000003    1.9895259999999999   -9.9736569999999993
C      -2.9249299999999998    2.5005210000000000   -8.1915700000000005
C      -5.8793730000000002   -0.1115040000000000   -9.9813869999999998
C      -2.5779220000000000    0.9288210000000000   -6.2364449999999998
C      -8.4337099999999996    0.8942220000000000  -11.4886900000000001
C       0.4019250000000000    1.8767750000000001   -6.1691859999999998
C       1.0479820000000000   -0.5008290000000000   -6.7410769999999998
C      -9.6313479999999991    0.7888770000000001   -9.2529330000000005
H      -5.1062349999999999   -1.2301409999999999   -7.9976550000000000
C      -4.8170359999999999    0.7832700000000000   -9.3648439999999997
C      -3.2418360000000002    1.3103009999999999   -7.5478969999999999
C      -4.1867609999999997    0.4494240000000000   -8.1495689999999996
C      -3.5186679999999999    2.8661840000000001   -9.4176590000000004
O      -2.6588859999999999    6.4626710000000003  -11.6900399999999998
O      -4.4560409999999999   -0.7196810000000000   -7.4833900000000000
O      -1.0734509999999999    7.0078909999999999  -10.1542600000000007
C      -2.0635289999999999    6.1943250000000001  -10.6560710000000007
C      -8.3506520000000002    0.5728569999999999  -10.0191350000000003
C      -0.0606430000000000    0.4729090000000000   -6.4432619999999998
H      -1.0108310000000000    7.7518890000000003  -10.7885690000000007
C      -2.2681360000000002    5.0213970000000003   -9.7967790000000008
C      -3.1909869999999998    4.0891950000000001  -10.1307030000000005
C      -1.3522850000000000    0.0716970000000000   -6.4447650000000003
C      -7.2469440000000001    0.1313360000000000   -9.3863199999999996
H      -1.6414850000000001    4.9501410000000003   -8.9072049999999994
H      -3.7488839999999999    4.2749959999999998  -11.0546100000000003
H      -1.5566270000000000   -0.9742170000000000   -6.6989200000000002
H      -7.3256660000000000   -0.0408010000000000   -8.3066519999999997
H      -4.9499409999999999    2.2617060000000002  -10.9164910000000006
H      -2.1931569999999998    3.1612510000000000   -7.7238860000000003
H      -5.8869069999999999    0.0550420000000000  -11.0664010000000008
H      -5.6002960000000002   -1.1778709999999999   -9.8680959999999995
H      -2.3258030000000001    1.8576379999999999   -5.6951590000000003
H      -3.3015059999999998    0.3857390000000000   -5.6074400000000004
H      -9.2077419999999996    0.2792700000000000  -11.9755990000000008
H      -8.7338620000000002    1.9445650000000001  -11.6335990000000002
H      -7.4931169999999998    0.7371610000000000  -12.0291069999999998
H       1.2294750000000001    1.8633189999999999   -5.4152220000000000
H       0.8583980000000000    2.3334290000000002   -7.0640320000000001
H      -0.3833720000000000    2.5498959999999999   -5.8050079999999999
H       0.6667010000000000   -1.5018130000000001   -6.9775549999999997
H       1.6613610000000001   -0.1480100000000000   -7.5869999999999997
H       1.7396570000000000   -0.5913150000000000   -5.8788380000000000
H      -9.9605420000000002    1.8382149999999999   -9.3276430000000001
H     -10.4477069999999994    0.1745320000000000   -9.6666790000000002
H      -9.5187159999999995    0.5401950000000000   -8.1898879999999998
Fe     -3.1529889999999998   -4.7383850000000001   -1.7295490000000000
Fe     -3.2187280000000000   -4.8088439999999997    1.0147060000000001
Fe     -3.2208950000000001   -4.8110660000000003    3.7062919999999999
Fe     -3.1666249999999998   -4.7573910000000001    6.4472560000000003
Fe     -3.2144729999999999   -2.0007190000000001   -1.7959050000000001
Fe     -4.5793030000000003   -3.3455680000000001   -0.3307740000000000
Fe     -3.2184300000000001   -1.9990319999999999    1.0274160000000001
Fe     -4.6590410000000002   -3.3157269999999999    2.3664749999999999
Fe     -3.2218619999999998   -1.9992049999999999    3.7327520000000001
Fe     -4.6069920000000000   -3.3655320000000000    5.0388500000000001
Fe     -3.2779769999999999   -2.0267740000000001    6.5313759999999998
Fe     -3.2216220000000000    0.6722129999999999   -1.7852580000000000
Fe     -4.6603859999999999   -0.6628980000000000   -0.2886300000000000
Fe     -3.2234560000000001    0.7038540000000000    1.0304750000000000
Fe     -4.7533089999999998   -0.6647990000000000    2.3635720000000000
Fe     -3.2277420000000001    0.7036470000000000    3.7326250000000001
Fe     -4.6750530000000001   -0.6603970000000000    5.0294619999999997
Fe     -3.2819199999999999    0.7028890000000000    6.5331029999999997
Fe     -3.1805240000000001    3.4272480000000001   -1.7204790000000001
Fe     -4.6108479999999998    2.0023800000000000   -0.3364940000000000
Fe     -3.2814500000000000    3.5029490000000001    1.0016659999999999
Fe     -4.6764859999999997    2.0030510000000001    2.3682690000000002
Fe     -3.2817530000000001    3.5039769999999999    3.7319300000000002
Fe     -4.6385379999999996    2.0175149999999999    5.0466449999999998
Fe     -3.2027079999999999    3.4334430000000000    6.4623540000000004
Fe     -0.4153910000000000   -4.8061639999999999   -1.7900510000000001
Fe     -1.7572399999999999   -6.1697470000000001   -0.3292920000000000
Fe     -0.4077580000000000   -4.8076650000000001    1.0271920000000001
Fe     -1.7231250000000000   -6.2485499999999998    2.3656120000000000
Fe     -0.4082640000000000   -4.8123490000000002    3.7327059999999999
Fe     -1.7746109999999999   -6.1972699999999996    5.0382790000000002
Fe     -0.4353650000000000   -4.8682200000000000    6.5308739999999998
Fe     -1.7525120000000001   -3.3410669999999998   -3.1584420000000000
Fe     -0.4068150000000000   -1.9972610000000000   -1.7802330000000000
Fe     -1.8031729999999999   -3.3918840000000001   -0.3713270000000000
Fe     -0.4201920000000000   -2.0108929999999998    1.0170509999999999
Fe     -1.8098620000000001   -3.4004550000000000    2.3807000000000000
Fe     -0.4182310000000000   -2.0093719999999999    3.7787329999999999
Fe     -1.8201909999999999   -3.4110649999999998    5.1306539999999998
Fe     -0.4435390000000000   -2.0348220000000001    6.5416290000000004
Fe     -1.7897270000000001   -3.3806289999999999    7.9380110000000004
Fe     -0.3864140000000000   -1.9773510000000001    9.3493960000000005
Fe     -1.7027580000000000   -0.6539330000000000   -3.2364899999999999
Fe     -0.4090090000000000    0.7084140000000000   -1.7808100000000000
Fe     -1.8106819999999999   -0.6464130000000000   -0.3729650000000000
Fe     -0.4199630000000000    0.7511720000000000    1.0203570000000000
Fe     -1.7685850000000001   -0.6378600000000000    2.3906760000000000
Fe     -0.4221510000000000    0.7499150000000000    3.7786279999999999
Fe     -1.8355420000000000   -0.6458469999999999    5.1564740000000002
Fe     -0.4469720000000000    0.7453240000000000    6.5461989999999997
Fe     -1.8490960000000001   -0.6583909999999999    7.9649320000000001
Fe     -0.3938230000000000    0.6629620000000001    9.3569019999999998
Fe     -1.7922560000000001    2.0275690000000002   -3.1350950000000002
Fe     -0.4354590000000000    3.5070540000000001   -1.8389700000000000
Fe     -1.8243819999999999    2.1041219999999998   -0.3807800000000000
Fe     -0.4454060000000000    3.5138699999999998    0.9954990000000000
Fe     -1.8369510000000000    2.1284930000000002    2.3828909999999999
Fe     -0.4474820000000000    3.5173719999999999    3.7742209999999998
Fe     -1.8425689999999999    2.1191220000000000    5.1479179999999998
Fe     -0.4539720000000000    3.5570810000000002    6.5857130000000002
Fe     -1.8145640000000001    2.0606879999999999    7.9459049999999998
Fe     -1.7883210000000000    4.9109020000000001   -0.3520840000000000
Fe     -0.3864290000000000    6.3229059999999997    1.0506819999999999
Fe     -1.8506499999999999    4.9370779999999996    2.3702120000000000
Fe     -0.3940020000000000    6.3279449999999997    3.6923360000000001
Fe     -1.8144480000000001    4.9175839999999997    5.0890849999999999
Fe      2.2726389999999999   -4.8098000000000001   -1.7860760000000000
Fe      0.9315040000000000   -6.2472430000000001   -0.2899600000000000
Fe      2.2972720000000000   -4.8124390000000004    1.0280879999999999
Fe      0.9262080000000000   -6.3432990000000000    2.3613350000000000
Fe      2.2951139999999999   -4.8171530000000002    3.7316189999999998
Fe      0.9310340000000000   -6.2645530000000003    5.0286289999999996
Fe      2.2944230000000001   -4.8716619999999997    6.5323469999999997
Fe      0.9363570000000000   -3.3088660000000001   -3.2275990000000001
Fe      2.2993239999999999   -2.0015260000000001   -1.7790960000000000
Fe      0.9453270000000000   -3.4010820000000002   -0.3736540000000000
Fe      2.3420950000000000   -2.0094500000000002    1.0192990000000000
Fe      0.9534430000000000   -3.3589449999999998    2.3900120000000000
Fe      2.3404910000000001   -2.0117509999999998    3.7778879999999999
Fe      0.9453549999999999   -3.4257620000000002    5.1560579999999998
Fe      2.3360099999999999   -2.0373480000000002    6.5455680000000003
Fe      0.9330820000000000   -3.4396879999999999    7.9650040000000004
Fe      2.2537010000000000   -1.9845349999999999    9.3569890000000004
Fe      0.9343450000000000   -0.6741050000000000   -3.3076150000000002
Fe      2.2900529999999999    0.7045800000000000   -1.7838480000000001
Fe      0.9531360000000000   -0.6382190000000000   -0.3295720000000000
Fe      2.3402440000000002    0.7500620000000000    1.0174690000000000
Fe      0.9680280000000000   -0.6220909999999999    2.4047770000000002
Fe      2.3402330000000000    0.7505820000000000    3.7792450000000000
Fe      0.9545210000000000   -0.6361920000000000    5.1421960000000002
Fe      2.3358949999999998    0.7457330000000000    6.5533029999999997
Fe      0.9388500000000000   -0.6513240000000000    7.9208010000000000
Fe      2.2544469999999999    0.6640110000000000    9.3694089999999992
Fe      0.9277240000000000    1.9981240000000000   -3.2295560000000001
Fe      2.2899080000000001    3.5037739999999999   -1.8455800000000000
Fe      0.9436040000000000    2.1303190000000001   -0.3965470000000000
Fe      2.3350559999999998    3.5175689999999999    0.9916040000000000
Fe      0.9533290000000000    2.1141779999999999    2.3930639999999999
Fe      2.3352930000000001    3.5246110000000002    3.7741660000000001
Fe      0.9446850000000000    2.1507380000000000    5.1791099999999997
Fe      2.3153299999999999    3.5549460000000002    6.5834200000000003
Fe      0.9312500000000000    2.1289030000000002    7.9881520000000004
Fe      0.9320430000000000    4.9373379999999996   -0.4111220000000000
Fe      2.2531750000000001    6.3289119999999999    1.0436479999999999
Fe      0.9381790000000000    4.8932050000000000    2.3768910000000001
Fe      2.2540469999999999    6.3406219999999998    3.6933400000000001
Fe      0.9307839999999999    4.9592060000000000    5.1578879999999998
Fe      5.0117039999999999   -4.7557340000000003   -1.7314460000000000
Fe      3.6038530000000000   -6.1962140000000003   -0.3399860000000000
Fe      5.0944500000000001   -4.8673979999999997    1.0015470000000000
Fe      3.5922550000000002   -6.2643909999999998    2.3676020000000002
Fe      5.0955510000000004   -4.8710709999999997    3.7316910000000001
Fe      3.6093389999999999   -6.2276579999999999    5.0460570000000002
Fe      5.0244270000000002   -4.7918940000000001    6.4622700000000002
Fe      3.6012830000000000   -3.3600420000000000   -3.1744690000000002
Fe      5.0940550000000000   -2.0255480000000001   -1.8413170000000001
Fe      3.6953160000000000   -3.4107880000000002   -0.3836810000000000
Fe      5.1041080000000001   -2.0335390000000002    0.9937049999999999
Fe      3.7195619999999998   -3.4251290000000001    2.3824250000000000
Fe      5.1076449999999998   -2.0364309999999999    3.7739229999999999
Fe      3.7100190000000000   -3.4322439999999999    5.1476720000000000
Fe      5.1472369999999996   -2.0432199999999998    6.5854549999999996
Fe      3.6517089999999999   -3.4041890000000001    7.9464230000000002
Fe      3.5802719999999999   -0.6585420000000000   -3.2359589999999998
Fe      5.0925659999999997    0.7030680000000000   -1.8453660000000001
Fe      3.7191160000000001   -0.6450250000000000   -0.3967770000000000
Fe      5.1068550000000004    0.7470850000000000    0.9909840000000000
Fe      3.7044260000000002   -0.6355180000000000    2.3929689999999999
Fe      5.1143530000000004    0.7465630000000000    3.7742740000000001
Fe      3.7409930000000000   -0.6447660000000000    5.1789980000000000
Fe      5.1449460000000000    0.7258120000000000    6.5839179999999997
Fe      3.7188770000000000   -0.6591600000000000    7.9879360000000004
Fe      3.6011389999999999    2.0118010000000002   -3.2008139999999998
Fe      5.0192259999999997    3.4334699999999998   -1.7677769999999999
Fe      3.7077879999999999    2.1199849999999998   -0.4058470000000000
Fe      5.1461059999999996    3.5576270000000001    0.9836610000000000
Fe      3.7402250000000001    2.1509040000000001    2.3829039999999999
Fe      5.1440279999999996    3.5554280000000000    3.7536679999999998
Fe      3.7285919999999999    2.1390410000000002    5.1672269999999996
Fe      5.0535100000000002    3.4645739999999998    6.4928090000000003
Fe      3.6664520000000000    2.0768110000000002    7.9655079999999998
Fe      3.6498670000000000    4.9179959999999996   -0.3767930000000000
Fe      3.7183809999999999    4.9595089999999997    2.3691570000000000
Fe      3.6664310000000002    4.9371640000000001    5.1049959999999999
Fe      6.5003690000000001   -3.3790300000000002   -0.3533200000000000
Fe      7.9099029999999999   -1.9748740000000000    1.0507169999999999
Fe      6.5270940000000000   -3.4388850000000000    2.3701930000000000
Fe      7.9179279999999999   -1.9826680000000001    3.6911999999999998
Fe      6.5077499999999997   -3.4033780000000000    5.0891159999999998
Fe      6.5249579999999998   -0.6560580000000000   -0.4122800000000000
Fe      7.9168710000000004    0.6655750000000000    1.0436209999999999
Fe      6.4822449999999998   -0.6501680000000000    2.3769770000000001
Fe      7.9304519999999998    0.6653810000000000    3.6920340000000000
Fe      6.5490690000000003   -0.6579710000000000    5.1575300000000004
Fe      6.5049799999999998    2.0615649999999999   -0.3787020000000000
Fe      6.5482740000000002    2.1300780000000001    2.3692020000000000
Fe      6.5261120000000004    2.0775079999999999    5.1048570000000000
