  203
 
C      -6.1856299999999997   -5.2280259999999998    0.1861540000000000
C      -5.0398040000000002   -6.1392069999999999    2.1001859999999999
C      -5.1095269999999999   -5.1187079999999998   -2.0974759999999999
C      -2.6562220000000001   -6.9790929999999998    1.9517110000000000
C      -4.1538740000000001   -4.8582109999999998   -5.0714709999999998
C      -2.8922930000000000   -5.2711189999999997    4.6162179999999999
C      -0.3994820000000000   -5.6331119999999997    4.7779309999999997
C      -3.3833660000000001   -7.2676249999999998   -4.9051220000000004
H      -2.8896050000000000   -5.9908270000000003   -1.6654510000000000
C      -5.0573509999999997   -5.4154700000000000   -0.6153840000000000
C      -3.8723570000000000   -6.3014409999999996    1.3633850000000001
C      -3.8889309999999999   -5.8970349999999998    0.0116680000000000
C      -6.2034770000000004   -5.5687150000000001    1.5508059999999999
O      -9.9247479999999992   -4.9666649999999999    3.7149399999999999
O      -2.6947019999999999   -6.0583030000000004   -0.6961710000000000
O      -8.9770869999999992   -5.9743940000000002    5.5182859999999998
C      -8.9508609999999997   -5.4964510000000004    4.2297750000000001
C      -4.0266890000000002   -6.0932440000000003   -4.2207420000000004
C      -1.5907510000000000   -5.4405310000000000    3.8409979999999999
H      -9.8818009999999994   -5.7842940000000000    5.8418029999999996
C      -7.6402530000000004   -5.7313479999999997    3.6078199999999998
C      -7.4245010000000002   -5.3840450000000004    2.3173089999999998
C      -1.5459259999999999   -6.1215929999999998    2.5652119999999998
C      -4.4881739999999999   -6.1979490000000004   -2.9521829999999998
H      -6.8822279999999996   -6.2066039999999996    4.2312219999999998
H      -8.2677359999999993   -4.9233120000000001    1.7921350000000000
H      -0.5594410000000000   -6.5522400000000003    2.3494809999999999
H      -4.4420919999999997   -7.1944770000000000   -2.4947330000000001
H      -7.0934309999999998   -4.8296570000000001   -0.2726150000000000
H      -5.0477959999999999   -6.4963670000000002    3.1297600000000001
H      -6.1640110000000004   -4.9558350000000004   -2.3771529999999998
H      -4.6105760000000000   -4.1327090000000002   -2.2903140000000000
H      -3.0151849999999998   -7.6933870000000004    2.7149399999999999
H      -2.1955710000000002   -7.5826079999999996    1.1574270000000000
H      -3.1695060000000002   -4.6064870000000004   -5.5396070000000002
H      -4.8291979999999999   -5.0407180000000000   -5.9254189999999998
H      -4.5558480000000001   -3.9872139999999998   -4.5195819999999998
H      -2.7350970000000001   -4.6402380000000001    5.5083739999999999
H      -3.7239789999999999   -4.8540340000000004    4.0127920000000001
H      -3.2766139999999999   -6.2407630000000003    4.9874989999999997
H       0.5311650000000000   -5.8320689999999997    4.2254550000000002
H      -0.2228300000000000   -4.7578860000000001    5.4294630000000002
H      -0.5767220000000000   -6.5027759999999999    5.4434279999999999
H      -3.9339149999999998   -7.5513810000000001   -5.8143089999999997
H      -2.3627500000000001   -7.0097110000000002   -5.2277250000000004
H      -3.3246720000000001   -8.1435999999999993   -4.2497990000000003
Fe     -2.6312929999999999   -2.7766199999999999   -4.5763689999999997
Fe     -2.7497449999999999   -2.7864300000000002   -1.8825719999999999
Fe     -2.8641019999999999   -2.8561169999999998    0.8207110000000000
Fe     -2.9106450000000001   -2.8208690000000001    3.5614550000000000
Fe     -2.8137189999999999   -0.0458560000000000   -4.7040119999999996
Fe     -4.1687669999999999   -1.4026780000000001   -3.2620250000000000
Fe     -2.9121920000000001   -0.0168600000000000   -1.8852059999999999
Fe     -4.3363290000000001   -1.4352579999999999   -0.5915700000000000
Fe     -3.0302099999999998   -0.0380770000000000    0.8164760000000000
Fe     -4.3793610000000003   -1.4996119999999999    2.0816140000000001
Fe     -3.2038000000000002   -0.0595310000000000    3.5969530000000001
Fe     -2.9346510000000001    2.6389269999999998   -4.7261210000000000
Fe     -4.3713550000000003    1.2491730000000001   -3.2727480000000000
Fe     -3.0504950000000002    2.6770730000000000   -1.9118900000000001
Fe     -4.5609190000000002    1.2193030000000000   -0.6269590000000000
Fe     -3.1706829999999999    2.6747410000000000    0.7877330000000000
Fe     -4.5983599999999996    1.2331880000000000    2.0267130000000000
Fe     -3.3459360000000000    2.6774550000000001    3.5780810000000001
Fe     -3.0100159999999998    5.3786519999999998   -4.6890650000000003
Fe     -4.4380819999999996    3.9105699999999999   -3.3456480000000002
Fe     -3.2406709999999999    5.4683510000000002   -1.9619370000000000
Fe     -4.6174989999999996    3.9026060000000000   -0.6457619999999999
Fe     -3.3597619999999999    5.4724529999999998    0.7640890000000000
Fe     -4.6986200000000000    3.9219460000000002    2.0302460000000000
Fe     -3.3947620000000001    5.4158119999999998    3.4950839999999999
Fe      0.1293590000000000   -2.7038709999999999   -4.5873239999999997
Fe     -1.1624559999999999   -4.1034590000000000   -3.1682510000000002
Fe      0.0165410000000000   -2.6907559999999999   -1.7567990000000000
Fe     -1.3258340000000000   -4.2635889999999996   -0.4755540000000000
Fe     -0.1029890000000000   -2.6866780000000001    0.9166580000000000
Fe     -1.3540840000000001   -4.1398169999999999    2.2503910000000000
Fe     -0.1980020000000000   -2.7116899999999999    3.7530899999999998
Fe     -1.2527950000000001   -1.3434569999999999   -5.9918220000000000
Fe     -0.0040350000000000    0.0978790000000000   -4.5946879999999997
Fe     -1.3799180000000000   -1.3463830000000001   -3.2320220000000002
Fe     -0.1272810000000000    0.1008040000000000   -1.7948280000000001
Fe     -1.4979460000000000   -1.3503930000000000   -0.4721020000000000
Fe     -0.2424160000000000    0.1069820000000000    0.9684600000000000
Fe     -1.6190100000000001   -1.3714430000000000    2.2786640000000000
Fe     -0.3745570000000000    0.0874750000000000    3.7222040000000001
Fe     -1.7112480000000001   -1.3118540000000001    5.0720190000000001
Fe     -0.4341730000000000    0.1652050000000000    6.5323919999999998
Fe     -1.3221390000000000    1.3599000000000001   -6.0900069999999999
Fe     -0.1308880000000000    2.7993939999999999   -4.6124970000000003
Fe     -1.5221430000000000    1.3900120000000000   -3.2484780000000000
Fe     -0.2593890000000000    2.8558119999999998   -1.8108230000000001
Fe     -1.5939200000000000    1.4064470000000000   -0.4810980000000000
Fe     -0.3782740000000000    2.8633950000000001    0.9474200000000000
Fe     -1.7774040000000000    1.4002530000000000    2.2775360000000000
Fe     -0.5194290000000000    2.8638910000000002    3.7077070000000001
Fe     -1.9096020000000000    1.3947579999999999    5.0748259999999998
Fe     -0.5829400000000000    2.7940760000000000    6.5170110000000001
Fe     -1.4965910000000000    4.0317710000000000   -6.0625289999999996
Fe     -0.2867170000000000    5.5914659999999996   -4.6857100000000003
Fe     -1.6616089999999999    4.1339649999999999   -3.2778800000000001
Fe     -0.4152820000000000    5.6134240000000002   -1.8528929999999999
Fe     -1.7934960000000000    4.1665869999999998   -0.5132420000000000
Fe     -0.5367050000000000    5.6253830000000002    0.9255220000000000
Fe     -1.9178850000000001    4.1662689999999998    2.2482160000000002
Fe     -0.6638070000000000    5.6757340000000003    3.7315109999999998
Fe     -2.0057890000000000    4.1146900000000004    5.0401189999999998
Fe     -1.7666370000000000    6.9373769999999997   -3.2637649999999998
Fe     -0.4961780000000000    8.4167430000000003   -1.8103849999999999
Fe     -1.9445930000000000    6.9716030000000000   -0.5434940000000000
Fe     -0.6163040000000000    8.4343299999999992    0.8280390000000000
Fe     -2.0239460000000000    6.9659279999999999    2.1750590000000001
Fe      2.8059150000000002   -2.5754480000000002   -4.4713469999999997
Fe      1.4843400000000000   -4.0703719999999999   -3.0095049999999999
Fe      2.7217419999999999   -2.5628950000000001   -1.6596379999999999
Fe      1.3256600000000001   -4.1522690000000004   -0.3760270000000000
Fe      2.6136529999999998   -2.5527060000000001    1.0324409999999999
Fe      1.2674710000000000   -4.0372640000000004    2.2318280000000001
Fe      2.4898359999999999   -2.5974179999999998    3.8401730000000001
Fe      1.4557899999999999   -1.1464099999999999   -5.9712870000000002
Fe      2.6999249999999999    0.2320920000000000   -4.4875350000000003
Fe      1.3568380000000000   -1.2263029999999999   -3.1193890000000000
Fe      2.6316169999999999    0.2372570000000000   -1.6867230000000000
Fe      1.2506400000000000   -1.1745650000000001   -0.3617810000000000
Fe      2.5141650000000002    0.2426110000000000    1.0730510000000000
Fe      1.1348929999999999   -1.2295380000000000    2.3952460000000002
Fe      2.3966980000000002    0.2284910000000000    3.8374660000000000
Fe      1.0139050000000001   -1.2289209999999999    5.2154439999999997
Fe      2.1985009999999998    0.2940480000000000    6.6494520000000001
Fe      1.3362190000000000    1.5020780000000000   -6.0750549999999999
Fe      2.5718359999999998    2.9327230000000002   -4.5021560000000003
Fe      1.2323809999999999    1.5314700000000001   -3.0964680000000002
Fe      2.4949729999999999    2.9904790000000001   -1.6997320000000000
Fe      1.1356539999999999    1.5590580000000001   -0.3599400000000000
Fe      2.3791000000000002    2.9998870000000002    1.0607789999999999
Fe      1.0057119999999999    1.5528679999999999    2.3717500000000000
Fe      2.2576060000000000    3.0042949999999999    3.8306860000000000
Fe      0.8760580000000000    1.5479970000000001    5.1468550000000004
Fe      2.0613410000000001    2.9289390000000002    6.6418929999999996
Fe      1.2078990000000001    4.1507519999999998   -6.0124310000000003
Fe      2.4380869999999999    5.7282770000000003   -4.5751540000000004
Fe      1.0950740000000001    4.2926200000000003   -3.1777940000000000
Fe      2.3585319999999999    5.7501429999999996   -1.7401199999999999
Fe      0.9874090000000000    4.2880339999999997   -0.3895470000000000
Fe      2.2399670000000000    5.7671390000000002    1.0388050000000000
Fe      0.8590570000000000    4.3345969999999996    2.3949790000000002
Fe      2.1010450000000001    5.8080629999999998    3.8460150000000000
Fe      0.7272120000000000    4.3219940000000001    5.1983699999999997
Fe      0.9488120000000000    7.0931129999999998   -3.2107090000000000
Fe      2.1391170000000002    8.5463030000000000   -1.7082480000000000
Fe      0.8393290000000000    7.0592079999999999   -0.4213880000000000
Fe      2.0290379999999999    8.5734870000000001    0.9389660000000000
Fe      0.7113860000000000    7.1387179999999999    2.3547069999999999
Fe      5.5354830000000002   -2.3890240000000000   -4.3080100000000003
Fe      4.1427430000000003   -3.8907200000000000   -2.9656300000000000
Fe      5.5121300000000000   -2.4888750000000002   -1.5695990000000000
Fe      4.0221400000000003   -3.9466660000000000   -0.2616510000000000
Fe      5.3988540000000000   -2.4803769999999998    1.1551700000000000
Fe      3.9210360000000000   -3.8989699999999998    2.4199780000000000
Fe      5.2139689999999996   -2.3938250000000001    3.8790749999999998
Fe      4.1245810000000001   -1.0734779999999999   -5.8137610000000004
Fe      5.4967079999999999    0.3397860000000000   -4.4290740000000000
Fe      4.1061860000000001   -1.1036880000000000   -3.0210750000000002
Fe      5.3893170000000001    0.3419540000000000   -1.5938810000000001
Fe      4.0148130000000002   -1.1039030000000001   -0.2557220000000000
Fe      5.2750740000000000    0.3512120000000000    1.1861900000000001
Fe      3.8946200000000002   -1.1013590000000000    2.5072079999999999
Fe      5.1987600000000000    0.3555410000000000    3.9983480000000000
Fe      3.7155640000000001   -1.0676399999999999    5.3025560000000000
Fe      3.9876160000000000    1.6271350000000000   -5.8927280000000000
Fe      5.3696339999999996    3.0649470000000001   -4.4447289999999997
Fe      4.0005490000000004    1.6565760000000000   -3.0502690000000001
Fe      5.2585699999999997    3.1169620000000000   -1.6100989999999999
Fe      3.8653870000000001    1.6763790000000001   -0.2616940000000000
Fe      5.1458250000000003    3.1280420000000002    1.1704859999999999
Fe      3.7864800000000001    1.6795780000000000    2.5251880000000000
Fe      5.0614280000000003    3.1217760000000001    3.9810479999999999
Fe      3.6486879999999999    1.6756450000000001    5.3288840000000004
Fe      3.8800599999999998    4.3025659999999997   -5.8667509999999998
Fe      5.1666499999999997    5.7906649999999997   -4.3810310000000001
Fe      3.8588830000000001    4.4187029999999998   -3.0707119999999999
Fe      5.1641979999999998    5.9273110000000004   -1.6302209999999999
Fe      3.7686620000000000    4.4590709999999998   -0.2841440000000000
Fe      5.0434140000000003    5.9346810000000003    1.1379040000000000
Fe      3.6373110000000000    4.4561989999999998    2.4964849999999998
Fe      4.8420019999999999    5.8487710000000002    3.8696410000000001
Fe      3.4608840000000001    4.4012140000000004    5.2907590000000004
Fe      3.6644250000000000    7.2057650000000004   -3.0592790000000001
Fe      3.6127449999999999    7.2595619999999998   -0.3137460000000000
Fe      3.4443769999999998    7.2456079999999998    2.4154409999999999
Fe      6.9024039999999998   -0.9425110000000000   -2.8724729999999998
Fe      8.1795390000000001    0.5317950000000000   -1.4190659999999999
Fe      6.8156850000000002   -0.9901780000000000   -0.1510720000000000
Fe      8.0766969999999993    0.5366050000000000    1.2172890000000001
Fe      6.6853999999999996   -0.9429090000000000    2.5654569999999999
Fe      6.8013690000000002    1.7779929999999999   -2.9480019999999998
Fe      8.0619949999999996    3.1678829999999998   -1.4384170000000001
Fe      6.6361270000000001    1.7941110000000000   -0.1598300000000000
Fe      7.9624829999999998    3.1819660000000001    1.2097410000000000
Fe      6.5874319999999997    1.8006780000000000    2.6213910000000000
Fe      6.6512659999999997    4.4938260000000003   -2.9240300000000001
Fe      6.5707360000000001    4.5730880000000003   -0.1795010000000000
Fe      6.4345309999999998    4.5289279999999996    2.5522260000000001
