  203
 
C      -5.9381560000000002   -0.6020440000000000    0.1456870000000000
C      -5.8988950000000004    1.2433940000000001   -1.5515779999999999
C      -6.9934209999999997   -2.8281220000000000   -0.5708960000000000
C      -6.3672529999999998    0.8349440000000000   -4.0082870000000002
C      -6.8998640000000000   -4.3284929999999999    2.1846640000000002
C      -6.5560289999999997    3.9517509999999998   -3.9392230000000001
C      -9.0705439999999999    3.6653910000000001   -3.7203700000000000
C      -5.4349509999999999   -6.0527660000000001    1.0389780000000000
H      -6.3366720000000001   -2.8050440000000001   -3.2643110000000002
C      -6.1316449999999998   -1.6068290000000001   -0.9226259999999999
C      -6.0324070000000001    0.2933650000000000   -2.6121059999999998
C      -6.1412599999999999   -1.1159150000000000   -2.3017940000000001
C      -5.8795999999999999    0.8225120000000000   -0.1618970000000000
O      -5.1915800000000001    3.6426620000000001    3.1288019999999999
O      -6.7195229999999997   -1.9015550000000001   -3.3141630000000002
O      -5.8382500000000004    5.3420579999999998    1.7664010000000001
C      -5.5245319999999998    4.0273690000000002    1.9366520000000000
C      -6.1992380000000002   -4.7619369999999996    0.9264670000000000
C      -7.7269880000000004    3.0014560000000001   -3.8895080000000002
H      -5.5929849999999997    5.7838580000000004    2.6042139999999998
C      -5.6626469999999998    3.2006570000000001    0.7907900000000000
C      -5.6720969999999999    1.7412939999999999    0.9254570000000000
C      -7.6283789999999998    1.6577450000000000   -3.9518230000000001
C      -6.2232229999999999   -4.0816220000000003   -0.2442160000000000
H      -6.1122249999999996    3.6789470000000000   -0.0810610000000000
H      -5.9058180000000000    1.3668979999999999    1.9296080000000000
H      -8.5539360000000002    1.0772240000000000   -3.8723879999999999
H      -5.6682889999999997   -4.5181750000000003   -1.0864760000000000
H      -6.3958259999999996   -0.8532220000000000    1.1105810000000000
H      -6.1980570000000004    2.2714539999999999   -1.7633900000000000
H      -7.6495319999999998   -2.5456949999999998    0.2644630000000000
H      -7.6666129999999999   -3.0319330000000000   -1.4199489999999999
H      -5.5201289999999998    1.4355629999999999   -4.3782329999999998
H      -6.4762469999999999   -0.0117820000000000   -4.6981890000000002
H      -7.6897869999999999   -5.0487679999999999    2.4595400000000001
H      -6.1818280000000003   -4.3114920000000003    3.0240320000000001
H      -7.3601830000000001   -3.3347150000000001    2.1091669999999998
H      -6.6658869999999997    4.6713410000000000   -4.7672070000000000
H      -6.5098110000000000    4.5595710000000000   -3.0176240000000001
H      -5.5846000000000000    3.4496389999999999   -4.0650209999999998
H      -9.8890189999999993    2.9342630000000001   -3.7203279999999999
H      -9.1115150000000007    4.2236710000000004   -2.7695409999999998
H      -9.2608060000000005    4.3994169999999997   -4.5204560000000003
H      -4.6730739999999997   -5.9865990000000000    1.8378280000000000
H      -6.1091920000000002   -6.8831769999999999    1.3094110000000001
H      -4.9203219999999996   -6.3043589999999998    0.1021990000000000
Fe     -3.1784330000000001   -3.4642210000000002   -3.7681589999999998
Fe     -3.0306229999999998   -3.6674660000000001   -1.0774640000000000
Fe     -2.8573330000000001   -3.7636980000000002    1.5801400000000001
Fe     -2.6344639999999999   -3.8489330000000002    4.3176189999999997
Fe     -2.8212549999999998   -0.7551050000000000   -3.7901110000000000
Fe     -4.2631079999999999   -1.9144190000000001   -2.2143609999999998
Fe     -2.6377449999999998   -0.8602770000000000   -0.9802770000000000
Fe     -4.2372699999999996   -2.0271240000000001    0.3617730000000000
Fe     -2.4843270000000000   -1.0128180000000000    1.7147930000000000
Fe     -3.9464649999999999   -2.2394820000000002    3.0438310000000000
Fe     -2.3527529999999999   -1.1507639999999999    4.5212320000000004
Fe     -2.4603280000000001    1.8977700000000000   -3.7345959999999998
Fe     -3.9770319999999999    0.7544750000000000   -2.2372440000000000
Fe     -2.2896030000000001    1.7743590000000000   -0.8981310000000000
Fe     -3.9334799999999999    0.5259070000000000    0.5132220000000000
Fe     -2.1289460000000000    1.6602950000000001    1.8179650000000001
Fe     -3.6079189999999999    0.4430280000000000    3.2066100000000000
Fe     -1.9911650000000001    1.5653950000000001    4.6134769999999996
Fe     -2.0782340000000001    4.5893590000000000   -3.5693769999999998
Fe     -3.5656509999999999    3.3158690000000002   -2.1316180000000000
Fe     -2.0253329999999998    4.5524370000000003   -0.8027520000000000
Fe     -3.5391200000000000    3.1030020000000000    0.5796820000000000
Fe     -1.8330150000000001    4.4326160000000003    1.8860330000000001
Fe     -3.3159909999999999    3.1250610000000001    3.2833329999999998
Fe     -1.5874159999999999    4.2555290000000001    4.6259899999999998
Fe     -0.4636430000000000   -3.9119190000000001   -4.0668650000000000
Fe     -1.8777100000000000   -5.1457290000000002   -2.5673819999999998
Fe     -0.2609610000000000   -4.0289659999999996   -1.2686430000000000
Fe     -1.6651959999999999   -5.3384470000000004    0.1100340000000000
Fe     -0.0814540000000000   -4.1480720000000000    1.4244640000000000
Fe     -1.5387000000000000   -5.3939260000000004    2.7742339999999999
Fe      0.0625600000000000   -4.3230560000000002    4.2147480000000002
Fe     -1.6824380000000001   -2.2380360000000001   -5.2815120000000002
Fe     -0.0649580000000000   -1.1327469999999999   -3.9780220000000002
Fe     -1.5495820000000000   -2.3827410000000002   -2.5125950000000001
Fe      0.1077880000000000   -1.2564109999999999   -1.1904729999999999
Fe     -1.3724440000000000   -2.5075059999999998    0.2193020000000000
Fe      0.2837950000000000   -1.3771059999999999    1.5631130000000000
Fe     -1.1949010000000000   -2.6405230000000000    2.9655160000000000
Fe      0.4357430000000000   -1.5180680000000000    4.3231919999999997
Fe     -0.9804550000000000   -2.7454630000000000    5.7717460000000003
Fe      0.6875900000000000   -1.5880770000000000    7.1193759999999999
Fe     -1.2670380000000001    0.4229760000000000   -5.2963860000000000
Fe      0.2963580000000000    1.5474460000000001   -3.8974030000000002
Fe     -1.1761850000000000    0.3353120000000000   -2.4409600000000000
Fe      0.4681950000000000    1.4726859999999999   -1.0965039999999999
Fe     -0.9628120000000000    0.2182890000000000    0.3252280000000000
Fe      0.6432340000000000    1.3535690000000000    1.6567580000000000
Fe     -0.8399520000000000    0.0925650000000000    3.0846339999999999
Fe      0.7968430000000000    1.2425949999999999    4.4205829999999997
Fe     -0.6705850000000000   -0.0330960000000000    5.8899900000000001
Fe      1.0323700000000000    1.0286880000000000    7.2166930000000002
Fe     -0.9557870000000001    3.0842740000000002   -5.1586169999999996
Fe      0.6242630000000000    4.3273250000000001   -3.8520409999999998
Fe     -0.8305720000000000    3.0543309999999999   -2.3533800000000000
Fe      0.7958750000000000    4.2058460000000002   -1.0242380000000000
Fe     -0.6752160000000000    2.9514570000000000    0.4098290000000000
Fe      0.9704190000000000    4.0961819999999998    1.7450939999999999
Fe     -0.5071510000000000    2.8389570000000002    3.1702750000000002
Fe      1.1529000000000000    4.0272129999999997    4.5513380000000003
Fe     -0.2841620000000000    2.6649099999999999    5.9652700000000003
Fe     -0.4521310000000000    5.8111649999999999   -2.2174469999999999
Fe      1.2189509999999999    6.9828609999999998   -0.8740590000000000
Fe     -0.3243620000000000    5.7344169999999997    0.4900700000000000
Fe      1.3790920000000000    6.8776869999999999    1.7464540000000000
Fe     -0.1226500000000000    5.6017570000000001    3.1961560000000002
Fe      2.2025399999999999   -4.2666810000000002   -4.2626030000000004
Fe      0.7822350000000000   -5.5780599999999998   -2.7176689999999999
Fe      2.4135499999999999   -4.3868229999999997   -1.4589690000000000
Fe      0.9575979999999999   -5.7809169999999996   -0.0751460000000000
Fe      2.5923140000000000   -4.5038539999999996    1.2365969999999999
Fe      1.1311530000000001   -5.8140590000000003    2.5759850000000002
Fe      2.7659220000000002   -4.6767799999999999    4.0239580000000004
Fe      0.9869790000000001   -2.5448100000000000   -5.5549590000000002
Fe      2.6076940000000000   -1.4886910000000000   -4.1702149999999998
Fe      1.1726770000000000   -2.7561849999999999   -2.7158159999999998
Fe      2.8326199999999999   -1.6166160000000001   -1.3799370000000000
Fe      1.3719260000000000   -2.8300770000000002    0.0392080000000000
Fe      3.0122800000000001   -1.7316910000000001    1.3695200000000001
Fe      1.5341320000000001   -3.0115560000000001    2.7947880000000000
Fe      3.1842910000000000   -1.8748039999999999    4.1277010000000001
Fe      1.7040679999999999   -3.1454830000000000    5.5921300000000000
Fe      3.2931840000000001   -1.9290630000000000    6.9365629999999996
Fe      1.3431439999999999    0.0773940000000000   -5.5603689999999997
Fe      2.9641869999999999    1.1951190000000000   -4.0827520000000002
Fe      1.5567200000000001   -0.0208540000000000   -2.5845609999999999
Fe      3.1950940000000001    1.1147860000000001   -1.2874650000000001
Fe      1.7471829999999999   -0.1243970000000000    0.1459860000000000
Fe      3.3745300000000000    0.9993180000000000    1.4620519999999999
Fe      1.9092620000000000   -0.2494520000000000    2.8742740000000002
Fe      3.5508660000000001    0.8834750000000000    4.2271359999999998
Fe      2.0757340000000002   -0.3802900000000000    5.6414109999999997
Fe      3.6433540000000000    0.6929530000000000    7.0367530000000000
Fe      1.6933630000000000    2.7208690000000000   -5.3915829999999998
Fe      3.3227449999999998    3.9714390000000002   -4.0439239999999996
Fe      1.9044650000000001    2.7202890000000002   -2.5554190000000001
Fe      3.5486490000000002    3.8573360000000001   -1.2215670000000001
Fe      2.0894670000000000    2.5852620000000002    0.2265680000000000
Fe      3.7282660000000001    3.7487599999999999    1.5515410000000001
Fe      2.2639290000000001    2.5096630000000002    3.0040570000000000
Fe      3.8987910000000001    3.6730680000000002    4.3555349999999997
Fe      2.4365030000000001    2.3753419999999998    5.8013950000000003
Fe      2.2516799999999999    5.5025579999999996   -2.4727690000000000
Fe      3.8295439999999998    6.6518410000000001   -1.0714880000000000
Fe      2.4312760000000000    5.3390909999999998    0.3014710000000000
Fe      4.0043360000000003    6.5520610000000001    1.5621370000000001
Fe      2.6118779999999999    5.2934910000000004    3.0738029999999998
Fe      4.9288959999999999   -4.5794480000000002   -4.4015440000000003
Fe      3.4276279999999999   -5.8724449999999999   -2.9606040000000000
Fe      5.1737339999999996   -4.8065300000000004   -1.6862839999999999
Fe      3.5894670000000000   -6.0506260000000003   -0.2680470000000000
Fe      5.3531959999999996   -4.9213620000000002    1.0344930000000001
Fe      3.7920250000000002   -6.1293759999999997    2.4056620000000000
Fe      5.4717979999999997   -4.9486679999999996    3.7616120000000000
Fe      3.6286909999999999   -2.9536609999999999   -5.6885110000000001
Fe      5.3685780000000003   -1.8749309999999999   -4.4215980000000004
Fe      3.8943479999999999   -3.1255449999999998   -2.9184160000000001
Fe      5.5628500000000001   -2.0034850000000000   -1.6008119999999999
Fe      4.0956210000000004   -3.2533270000000001   -0.1639510000000000
Fe      5.7475280000000000   -2.1196480000000002    1.1711380000000000
Fe      4.2666459999999997   -3.3730169999999999    2.5926550000000002
Fe      5.9681360000000003   -2.2470930000000000    3.9700110000000000
Fe      4.3968870000000004   -3.4600749999999998    5.3877160000000002
Fe      3.9713669999999999   -0.2654970000000000   -5.6623060000000001
Fe      5.7301339999999996    0.8308640000000000   -4.3334760000000001
Fe      4.2837379999999996   -0.3859120000000000   -2.8403939999999999
Fe      5.9348150000000004    0.7558490000000000   -1.5095460000000001
Fe      4.4560110000000002   -0.4918800000000000   -0.0629350000000000
Fe      6.1194970000000000    0.6390400000000001    1.2649060000000001
Fe      4.6659980000000001   -0.6197580000000000    2.7132329999999998
Fe      6.3305980000000002    0.5015860000000000    4.0609679999999999
Fe      4.8286590000000000   -0.7482020000000000    5.5114310000000000
Fe      4.3434450000000000    2.3849950000000000   -5.5380079999999996
Fe      6.0197710000000004    3.5434030000000001   -4.1572279999999999
Fe      4.6395210000000002    2.3551899999999999   -2.7534380000000001
Fe      6.3368229999999999    3.5371299999999999   -1.4240379999999999
Fe      4.8503559999999997    2.2647059999999999    0.0210520000000000
Fe      6.5129359999999998    3.4203980000000000    1.3351090000000001
Fe      5.0169329999999999    2.1405539999999998    2.7933500000000002
Fe      6.5896189999999999    3.2307139999999999    4.0629980000000003
Fe      5.1338780000000002    1.9735520000000000    5.5824819999999997
Fe      4.9431440000000002    5.1356970000000004   -2.6301180000000000
Fe      5.1937340000000001    5.0506570000000002    0.1008890000000000
Fe      5.3157660000000000    4.9268929999999997    2.8280680000000000
Fe      6.6773809999999996   -3.4676890000000000   -3.0895470000000000
Fe      8.3493860000000009   -2.3105780000000000   -1.7387220000000001
Fe      6.8758809999999997   -3.6361270000000001   -0.3761090000000000
Fe      8.5266699999999993   -2.4260600000000001    0.8925410000000000
Fe      7.0385179999999998   -3.7124150000000000    2.3418230000000002
Fe      7.0637040000000004   -0.7640670000000001   -3.0538560000000001
Fe      8.7068899999999996    0.3041890000000000   -1.6548639999999999
Fe      7.1964569999999997   -0.8653390000000000   -0.2708990000000000
Fe      8.8876729999999995    0.1971020000000000    0.9828650000000000
Fe      7.4440619999999997   -0.9947920000000000    2.4945309999999998
Fe      7.4042139999999996    1.9386930000000000   -2.9270770000000002
Fe      7.6319169999999996    1.8826680000000000   -0.1905310000000000
Fe      7.7791959999999998    1.7250920000000001    2.5385789999999999
