   31
 
C       1.1189030000000000    0.2681990000000000   -0.4242900000000000
C      -1.8006290000000000   -1.8690780000000000   -0.0860480000000000
C      -3.8280989999999999   -0.4800970000000000   -0.0426370000000000
C       3.5310760000000001    0.4037840000000000   -1.1233990000000000
C       2.9964909999999998   -0.7916970000000000    0.9096919999999999
C       4.8906820000000000    0.1639400000000000   -0.9100880000000000
C       4.3546480000000001   -1.0400210000000001    1.1169970000000000
C       5.3055029999999999   -0.5596449999999999    0.2111290000000000
H      -2.8606989999999999    2.5378289999999999    0.1631410000000000
H      -4.8664540000000001   -2.6663209999999999   -0.1426390000000000
C      -3.0411299999999999    0.6709490000000000    0.0149540000000000
C      -3.1984390000000000   -1.7296000000000000   -0.0834520000000000
C       2.5756329999999998   -0.0664520000000000   -0.2137570000000000
O      -1.2909660000000001    2.8994920000000000    0.2933310000000000
C       0.6833390000000000    1.5137350000000001    0.3534190000000000
O      -3.6261869999999998    1.8733649999999999    0.0829260000000000
O      -3.9182130000000002   -2.8872830000000000   -0.1361740000000000
C      -0.8061160000000001    1.7464720000000000    0.2110800000000000
C      -1.6136850000000000    0.5701910000000000    0.0256120000000000
C      -1.0217300000000000   -0.7213390000000000   -0.0370100000000000
O       0.3308730000000000   -0.8882120000000000   -0.0310630000000000
H      -1.3423270000000000   -2.8537620000000001   -0.1444420000000000
H       0.9187630000000000    1.3896240000000000    1.4246010000000000
H       1.2282709999999999    2.3989760000000002   -0.0001420000000000
H      -4.9147749999999997   -0.3863210000000000   -0.0421860000000000
H       0.9335460000000000    0.4353820000000000   -1.5018879999999999
H       3.2083270000000002    0.9591440000000000   -2.0071460000000001
H       2.2544369999999998   -1.1748240000000001    1.6111800000000001
H       5.6255170000000003    0.5342750000000001   -1.6262200000000000
H       4.6721199999999996   -1.6125020000000001    1.9898169999999999
H       6.3661219999999998   -0.7545030000000000    0.3756040000000000
