   19
 
C       2.9342389999999998    0.1178850000000000    0.0000690000000000
C       1.5543480000000001   -0.3976330000000000   -0.0006300000000000
C       0.5149670000000000    0.4651070000000000    0.0004380000000000
C      -0.9100300000000000    0.1545460000000000    0.0002160000000000
C      -1.8284360000000000    1.2248230000000000    0.0014170000000000
C      -3.2038300000000000    0.9934940000000000    0.0013620000000000
C      -3.6903940000000000   -0.3166260000000000    0.0001170000000000
C      -2.7918530000000001   -1.3922079999999999   -0.0010560000000000
C      -1.4194000000000000   -1.1623000000000001   -0.0010260000000000
O       3.2768850000000000    1.2901560000000001    0.0016010000000000
O       3.8452839999999999   -0.9092249999999999   -0.0012230000000000
H       1.4337979999999999   -1.4813490000000000   -0.0019180000000000
H       0.7733139999999999    1.5293120000000000    0.0017110000000000
H      -1.4466280000000000    2.2477239999999998    0.0023880000000000
H      -3.8967149999999999    1.8358410000000001    0.0022910000000000
H      -4.7651760000000003   -0.5024760000000000    0.0000930000000000
H      -3.1686679999999998   -2.4158759999999999   -0.0020070000000000
H      -0.7351510000000000   -2.0116420000000002   -0.0019120000000000
H       4.7229429999999999   -0.4757500000000000   -0.0006290000000000
