   19
 
C       2.9105439999999998    0.1143460000000000    0.0000040000000000
C       1.5369050000000000   -0.4027960000000000   -0.0007420000000000
C       0.5125050000000000    0.4566060000000000    0.0003370000000000
C      -0.9090170000000000    0.1512180000000000    0.0001530000000000
C      -1.8162590000000001    1.2145910000000000    0.0013930000000000
C      -3.1826370000000002    0.9868360000000000    0.0014140000000000
C      -3.6666539999999999   -0.3127290000000000    0.0001910000000000
C      -2.7765110000000002   -1.3819060000000001   -0.0010360000000000
C      -1.4136660000000001   -1.1547259999999999   -0.0010830000000000
O       3.2356880000000001    1.2743290000000000    0.0014820000000000
O       3.8183760000000002   -0.8842010000000000   -0.0009680000000000
H       1.4168120000000000   -1.4782839999999999   -0.0020560000000000
H       0.7726580000000000    1.5119260000000001    0.0015780000000000
H      -1.4356320000000000    2.2294860000000001    0.0023600000000000
H      -3.8695620000000002    1.8237760000000001    0.0023870000000000
H      -4.7339120000000001   -0.4958320000000000    0.0002170000000000
H      -3.1520579999999998   -2.3975580000000001   -0.0019900000000000
H      -0.7341950000000000   -1.9978640000000001   -0.0020210000000000
H       4.6861160000000002   -0.4634170000000000   -0.0003220000000000
