   20
 
O       3.5122270000000002    1.5093810000000001    0.0694150000000000
C       2.4699399999999998    0.5842930000000000    0.0279540000000000
C       1.1259349999999999    0.9368250000000000    0.0646410000000000
C       0.1042990000000000   -0.0385180000000000    0.0210250000000000
C       0.5164460000000000   -1.3903010000000000   -0.0487710000000000
C       1.8644879999999999   -1.7420590000000000   -0.0887680000000000
C       2.8580820000000000   -0.7597980000000000   -0.0534630000000000
O       4.1961019999999998   -1.1077820000000000   -0.0906320000000000
C      -1.2893269999999999    0.3963660000000000    0.0390600000000000
C      -2.3974910000000000   -0.3597400000000000   -0.1205110000000000
C      -3.8136049999999999    0.1866020000000000    0.0460960000000000
O      -4.0250290000000000    1.3849650000000000   -0.2874840000000000
O      -4.6096599999999999   -0.6652320000000000    0.5478960000000000
H       3.1207710000000000    2.3967630000000000    0.1166460000000000
H       0.8465390000000000    1.9938769999999999    0.1232710000000000
H      -0.2387870000000000   -2.1763170000000001   -0.0634180000000000
H       2.1698590000000002   -2.7885810000000002   -0.1417140000000000
H       4.6958019999999996   -0.2715040000000000   -0.0519240000000000
H      -1.4589049999999999    1.4713350000000001    0.1728810000000000
H      -2.3299789999999998   -1.4413170000000000   -0.2854750000000000
