  101
 
C       0.0442430000000000    3.3422529999999999   -1.5409870000000001
C       1.3701530000000000    3.1439159999999999    0.5307390000000000
C       1.2011769999999999    3.4583230000000000   -3.8302200000000002
C       3.8367610000000001    2.5419830000000001    0.4651080000000000
C      -1.6531920000000000    3.4327679999999998   -5.0542569999999998
C       3.9649869999999998    2.7963740000000001    3.6000930000000002
C       5.0602619999999998    5.0527240000000004    3.2329230000000000
C      -0.9954590000000000    1.3292440000000001   -6.3051100000000000
C       1.2229420000000000    3.1269309999999999   -2.3393850000000000
C       2.5288450000000000    2.8430620000000002   -0.2375880000000000
C       2.4358520000000001    2.8012340000000000   -1.6409350000000000
C       0.1104450000000000    3.4390410000000000   -0.0904150000000000
C      -2.2464780000000002    2.9832809999999998    2.8711350000000002
C      -0.5959120000000000    2.3964889999999999   -5.3217299999999996
C       4.4512660000000004    3.8215089999999998    2.6080350000000001
C      -1.0778410000000000    3.3448540000000002    2.1184419999999999
C      -1.1021330000000000    3.5162849999999999    0.6862210000000000
C       4.3776650000000004    3.6981590000000000    1.2673230000000000
C       0.6278880000000000    2.3879030000000001   -4.7381479999999998
H       3.3759350000000001    2.3417800000000000   -3.2561330000000002
H      -2.7990390000000001    2.6022900000000000    4.6698300000000001
H      -0.2332660000000000    3.7124990000000002    2.7095310000000001
H      -2.0469279999999999    3.7587310000000000    0.1938420000000000
H       4.7588299999999997    4.5304880000000001    0.6642680000000000
H       1.3037120000000000    1.5667300000000000   -5.0007229999999998
H      -0.8393240000000000    3.7592349999999999   -2.0323940000000000
H       1.5201890000000000    3.3937110000000001    1.5820829999999999
H       0.6432940000000000    4.3980790000000001   -3.9536899999999999
H       2.2241849999999999    3.6930420000000002   -4.1699299999999999
H       3.6706789999999998    1.6578170000000001    1.1235090000000001
H       4.5793559999999998    2.2328960000000002   -0.2829330000000000
H      -2.0691329999999999    3.8222100000000001   -5.9967430000000004
H      -2.4965590000000000    2.9714250000000000   -4.5078800000000001
H      -1.2980830000000001    4.2833779999999999   -4.4593480000000003
H       4.7924730000000002    2.4389609999999999    4.2354520000000004
H       3.2173820000000002    3.2359670000000000    4.2805920000000004
H       3.5041389999999999    1.9105040000000000    3.1343310000000000
H       5.4176270000000004    5.7633140000000003    2.4766859999999999
H       4.3326140000000004    5.5714689999999996    3.8787379999999998
H       5.9114399999999998    4.7834589999999997    3.8803770000000002
H      -1.9145030000000001    0.8070390000000000   -5.9865670000000000
H      -1.2207630000000000    1.7782750000000001   -7.2865529999999996
H      -0.2059760000000000    0.5804420000000000   -6.4444699999999999
O      -3.4746519999999999    2.8392569999999999    2.4548920000000001
O       3.5992510000000002    2.5405310000000001   -2.3301470000000002
O      -2.0053570000000001    3.0176330000000000    4.2734449999999997
Fe     -1.1049560000000000   -3.0288200000000001    4.6970440000000000
Fe     -1.1456780000000000   -6.9553050000000001    2.2399689999999999
Fe      0.0154390000000000   -5.0494329999999996    3.4026179999999999
Fe     -2.2991389999999998   -4.9891019999999999    3.3634249999999999
Fe      1.2515930000000000   -3.0133740000000002    3.9017460000000002
Fe      2.4595180000000001   -5.1660789999999999    3.1379980000000001
Fe      2.5501770000000001   -0.8429470000000000    3.6102099999999999
Fe      0.9928320000000000   -6.3427330000000000    1.3986989999999999
Fe      3.2646199999999999   -2.9041739999999998    2.3336389999999998
Fe      0.0753950000000000   -0.8438590000000000    3.8534600000000001
Fe     -3.4240699999999999   -2.8731429999999998    3.8075760000000001
Fe     -4.7399979999999999   -4.9508619999999999    2.9786229999999998
Fe      3.1880359999999999   -4.8385350000000003    0.7982420000000000
Fe      1.1316290000000000   -3.9283429999999999    1.5812150000000000
Fe     -2.2250740000000002   -0.7424890000000000    3.7782079999999998
Fe     -1.0684819999999999   -2.7787160000000002    2.3370880000000001
Fe     -3.2318889999999998   -6.2256049999999998    1.3324570000000000
Fe     -1.0787770000000001   -4.7776860000000001    1.0010260000000000
Fe      1.1696279999999999   -1.6274329999999999    1.8270180000000000
Fe     -4.6685739999999996   -0.7186660000000000    3.4762040000000001
Fe     -1.0773140000000001   -6.6251590000000000   -0.3884210000000000
Fe     -3.2612920000000001   -3.8004519999999999    1.4919819999999999
Fe      3.3244760000000002   -0.7548500000000000    1.2311550000000000
Fe     -1.0479400000000001    1.3027150000000001    3.0066950000000001
Fe      1.2105690000000000    0.7242920000000000    2.1854110000000002
Fe      1.1427309999999999   -5.0091289999999997   -0.5680220000000000
Fe     -5.3834109999999997   -2.6851780000000001    2.1155550000000001
Fe      2.4975749999999999   -2.6367870000000000   -0.2252130000000000
Fe     -3.2253829999999999   -1.4893529999999999    1.7216590000000001
Fe     -0.9958010000000000   -0.5528240000000000    1.4312900000000000
Fe     -5.3036170000000000   -4.6541069999999998    0.6002650000000000
Fe      0.1685680000000000   -2.5453389999999998   -0.1842480000000000
Fe     -3.3045480000000000    0.9290770000000000    2.0975250000000001
Fe     -3.2206750000000000   -4.9187960000000004   -0.6534260000000000
Fe      1.3235660000000000   -0.1886120000000000   -0.0650010000000000
Fe     -2.1435529999999998   -2.4948779999999999   -0.2084410000000000
Fe     -1.0164930000000001   -4.3528490000000000   -1.3874599999999999
Fe      0.1958180000000000   -6.0224240000000000   -2.5928070000000001
Fe     -5.2601360000000001   -0.4589730000000000    1.0372520000000001
Fe     -0.5141960000000000    1.5433920000000001    0.5318280000000000
Fe     -4.4722080000000002   -2.4161310000000000   -0.3746710000000000
Fe     -2.2551030000000001   -5.9645530000000004   -2.6553230000000001
Fe      1.1556360000000001   -3.5875789999999999   -2.4765959999999998
Fe     -3.1382420000000000   -0.0174690000000000   -0.1326860000000000
Fe     -0.9284670000000000   -0.3837390000000000   -0.9613740000000000
Fe      1.2067610000000000   -1.1153979999999999   -2.2397250000000000
Fe     -0.9511090000000000   -2.2471960000000002   -2.4122210000000002
Fe     -3.1169259999999999   -3.4823469999999999   -2.5339330000000002
Fe     -0.9736020000000000   -4.1991379999999996   -3.8667490000000000
Fe      0.4029060000000000    1.2706180000000000   -1.9520640000000000
Fe     -3.0670809999999999   -1.0347249999999999   -2.2784149999999999
Fe     -2.1848359999999998    1.2788880000000000   -1.9911690000000000
Fe      0.3812070000000000   -2.1148099999999999   -4.3674650000000002
Fe     -0.8797440000000000   -0.0799790000000000   -3.5115170000000000
Fe     -2.2093650000000000   -2.0663969999999998   -4.4114409999999999
