  101
 
C       4.1661979999999996   -1.9213840000000000   -1.7412240000000001
C       2.9316700000000000   -3.0768080000000002   -3.4583279999999998
C       3.2607740000000001   -1.5213909999999999    0.5649300000000000
C       0.5841850000000000   -3.9356520000000002   -3.0742780000000001
C       5.9549719999999997   -1.6965910000000000    2.1463960000000002
C       0.0173080000000000   -3.3435139999999999   -6.0989190000000004
C      -1.6820700000000000   -1.6283719999999999   -5.3011270000000001
C       5.1365040000000004   -3.9378080000000000    3.0127540000000002
C       3.0941250000000000   -2.0281250000000002   -0.8535670000000000
C       1.8390050000000000   -3.2141039999999998   -2.6096170000000001
C       1.9287970000000001   -2.6670880000000001   -1.3128690000000001
C       4.1128349999999996   -2.4250449999999999   -3.0511420000000000
C       6.6899759999999997   -2.4172840000000000   -5.8902710000000003
C       4.8473490000000004   -2.7164609999999998    2.1786569999999998
C      -0.6727840000000000   -2.6840790000000001   -4.9328010000000004
C       5.4158359999999997   -2.6412469999999999   -5.1956439999999997
C       5.2805049999999998   -2.2706800000000000   -3.9022730000000001
C      -0.4287090000000000   -2.9742069999999998   -3.6427710000000002
C       3.6797029999999999   -2.6118139999999999    1.5127960000000000
H       0.9156960000000000   -2.4539819999999999    0.3931500000000000
H       7.5132019999999997   -2.6614499999999999   -7.5642440000000004
H       4.6151540000000004   -3.1085120000000002   -5.7697240000000001
H       6.1550300000000000   -1.8003400000000001   -3.4409350000000001
H      -1.0188870000000001   -2.4060489999999999   -2.8973239999999998
H       2.9640629999999999   -3.4340980000000001    1.6218180000000000
H       5.0805559999999996   -1.4331440000000000   -1.3971810000000000
H       2.8633220000000001   -3.5028809999999999   -4.4602940000000002
H       3.9743919999999999   -0.6863060000000000    0.5530380000000000
H       2.2713500000000000   -1.0774690000000000    0.8799960000000000
H       0.8744170000000000   -4.6913919999999996   -3.8162699999999998
H       0.1390840000000000   -4.4765389999999998   -2.2255440000000002
H       6.2082259999999998   -1.3734480000000000    3.1688239999999999
H       6.8728970000000000   -2.1380840000000001    1.7248159999999999
H       5.7151959999999997   -0.7999830000000000    1.5630770000000000
H      -0.7232990000000000   -3.7395100000000001   -6.8121980000000004
H       0.6274110000000001   -2.6113179999999998   -6.6531859999999998
H       0.6720310000000000   -4.1710510000000003   -5.8014700000000001
H      -2.1499830000000002   -1.1797910000000000   -4.4051679999999998
H      -1.2102530000000000   -0.8116610000000000   -5.8718370000000002
H      -2.4901640000000000   -2.0366149999999998   -5.9294659999999997
H       6.0233059999999998   -4.4662910000000000    2.6256070000000000
H       5.3643090000000004   -3.6675949999999999    4.0564439999999999
H       4.2943150000000001   -4.6411480000000003    3.0125690000000001
O       7.7049209999999997   -1.9218480000000000   -5.4225539999999999
O       0.7956860000000000   -2.8234089999999998   -0.5179230000000000
O       6.6254619999999997   -2.8505750000000001   -7.1950419999999999
Fe     -2.6095130000000002    2.3177180000000002    6.0554180000000004
Fe     -2.4210850000000002   -1.8947719999999999    4.1280469999999996
Fe     -1.3655500000000000    0.1962920000000000    5.0548599999999997
Fe     -3.6686169999999998    0.1226130000000000    4.9733369999999999
Fe     -0.2472660000000000    2.3708819999999999    5.2866780000000002
Fe      1.0812280000000001    0.1990370000000000    4.7949409999999997
Fe      0.9583180000000000    4.5542920000000002    4.6629199999999997
Fe     -0.3099980000000000   -1.2719259999999999    3.2174740000000002
Fe      1.7697740000000000    2.3754900000000001    3.6786680000000000
Fe     -1.4931530000000000    4.4490290000000003    4.9168690000000002
Fe     -4.9228100000000001    2.2199369999999998    5.1322080000000003
Fe     -6.0967130000000003   -0.0023160000000000    4.5851519999999999
Fe      1.7952140000000001    0.2588180000000000    2.4105840000000001
Fe     -0.2984710000000000    1.1522950000000001    3.1031990000000000
Fe     -3.7962430000000000    4.3716860000000004    4.8490529999999996
Fe     -2.5436310000000000    2.2500840000000002    3.6804000000000001
Fe     -4.5316859999999997   -1.4073560000000001    3.0983860000000001
Fe     -2.4403280000000001    0.0944140000000000    2.6073559999999998
Fe     -0.3720880000000000    3.4620320000000002    3.0137670000000001
Fe     -6.2276800000000003    4.3395359999999998    4.4466900000000003
Fe     -2.3236590000000001   -1.9359080000000000    1.4672920000000000
Fe     -4.6703910000000004    0.9952760000000000    2.9455330000000002
Fe      1.6797320000000000    4.3991970000000000    2.2678829999999999
Fe     -2.6831740000000002    6.4056179999999996    3.8801440000000000
Fe     -0.5184210000000000    5.8712309999999999    3.0069880000000002
Fe     -0.2181990000000000   -0.1720140000000000    1.1157470000000000
Fe     -6.8429409999999997    2.1083840000000000    3.4125070000000002
Fe      1.0001020000000000    2.2954349999999999    1.0964000000000000
Fe     -4.7448269999999999    3.3122180000000001    2.8786730000000000
Fe     -2.5796999999999999    4.3422549999999998    2.4760219999999999
Fe     -6.6737399999999996   -0.0038970000000000    2.1488079999999998
Fe     -1.3039630000000000    2.2134610000000001    1.1546230000000000
Fe     -4.7563659999999999    5.7304060000000003    2.8800550000000000
Fe     -4.5571690000000000   -0.3812180000000000    0.9478180000000000
Fe     -0.3675900000000000    4.7108670000000004    0.9354080000000000
Fe     -3.6293750000000000    2.1325639999999999    1.0726080000000000
Fe     -2.3800710000000000    0.1735200000000000    0.1755820000000000
Fe     -0.9922550000000000   -1.5448510000000000   -0.7624220000000000
Fe     -6.8136369999999999    4.1315530000000003    2.0229119999999998
Fe     -2.6089300000000000    6.2976580000000002    1.2052810000000000
Fe     -5.9251129999999996    2.0485359999999999    0.8778100000000000
Fe     -3.4616270000000000   -1.6744190000000001   -0.8687220000000000
Fe     -0.2266980000000000    0.9454220000000000   -0.9874620000000000
Fe     -4.7256010000000002    4.5595710000000000    0.8049480000000000
Fe     -2.5058959999999999    4.1024969999999996    0.0596970000000000
Fe     -0.3154210000000000    3.4198409999999999   -1.0584910000000001
Fe     -2.3971760000000000    2.1031510000000000   -1.1425909999999999
Fe     -4.4915149999999997    0.7826670000000000   -1.1211329999999999
Fe     -2.2916590000000001   -0.0003650000000000   -2.2990520000000001
Fe     -1.3210510000000000    5.8725090000000000   -1.0283000000000000
Fe     -4.5718839999999998    3.2707880000000000   -1.1899869999999999
Fe     -3.7539400000000001    5.7919929999999997   -1.0980930000000000
Fe     -1.0732649999999999    2.0851009999999999   -3.1051199999999999
Fe     -2.4387850000000002    4.1372080000000002   -2.4507200000000000
Fe     -3.6091180000000000    1.9921080000000000   -3.1863229999999998
