  101
 
C       2.6687799999999999    5.1488950000000004    0.7122630000000000
C       0.7489110000000000    4.4307689999999997   -0.5606290000000000
C       2.8637400000000000    4.7432449999999999    3.2022430000000002
C      -1.2433320000000001    3.3465950000000002    0.5377670000000000
C       5.9588570000000001    4.4176370000000000    3.5020579999999999
C      -3.1185120000000000    4.6337549999999998   -1.5728020000000000
C      -4.1372939999999998    5.9709719999999997    0.3387710000000000
C       5.5269170000000001    1.9438709999999999    3.8863530000000002
C       2.1032600000000001    4.6616600000000004    1.8906840000000000
C       0.1441050000000000    3.9423580000000000    0.5903570000000000
C       0.8307950000000000    4.0620810000000001    1.8175470000000000
C       2.0124719999999998    5.0555019999999997   -0.5300330000000000
C       2.9476170000000002    6.3061670000000003   -4.0312729999999997
C       4.9448730000000003    3.3089599999999999    3.6209159999999998
C      -3.1368160000000000    4.9305440000000003   -0.0953270000000000
C       2.1554250000000001    5.6874390000000004   -2.9646979999999998
C       2.6507510000000001    5.6166739999999997   -1.7059770000000001
C      -2.3228629999999999    4.3560670000000004    0.8100510000000000
C       3.6131700000000002    3.4661439999999999    3.4996630000000000
H       0.7575769999999999    3.7058320000000000    3.7047870000000001
H       2.8716599999999999    6.7229840000000003   -5.8665649999999996
H       1.1704749999999999    5.3087900000000001   -3.2392289999999999
H       3.6471969999999998    6.0460229999999999   -1.5564720000000001
H      -2.4102560000000000    4.6670990000000003    1.8559509999999999
H       2.9930249999999998    2.5655730000000001    3.5818430000000001
H       3.6550340000000001    5.6175889999999997    0.7567130000000000
H       0.2121450000000000    4.3288929999999999   -1.5049999999999999
H       3.5466540000000002    5.6015850000000000    3.1560720000000000
H       2.1742599999999999    4.9840169999999997    4.0358840000000002
H      -1.3842820000000000    2.8598750000000002   -0.4418210000000000
H      -1.3211470000000001    2.5411030000000001    1.2981229999999999
H       6.5544650000000004    4.5015140000000002    4.4256880000000001
H       6.6712999999999996    4.1973510000000003    2.6905489999999999
H       5.5162050000000002    5.4000120000000003    3.2998880000000002
H      -4.1308449999999999    4.3880439999999998   -1.9311199999999999
H      -2.7940019999999999    5.5242170000000002   -2.1374700000000000
H      -2.4586020000000000    3.8012090000000001   -1.8464090000000000
H      -4.0919829999999999    6.1484150000000000    1.4212899999999999
H      -3.9546329999999998    6.9298260000000003   -0.1744930000000000
H      -5.1650250000000000    5.6666259999999999    0.0807240000000000
H       6.2206840000000003    1.6500360000000001    3.0818219999999998
H       6.1099509999999997    1.9379420000000001    4.8221520000000000
H       4.7458530000000003    1.1757480000000000    3.9615879999999999
O       4.0690869999999997    6.7878889999999998   -3.9369329999999998
O       0.1900790000000000    3.5682209999999999    2.9258530000000000
O       2.2650459999999999    6.2945479999999998   -5.2279059999999999
Fe     -1.1071139999999999   -3.8057249999999998    3.6468910000000001
Fe     -1.1072820000000001   -7.9647790000000001    1.6088430000000000
Fe      0.0449670000000000   -5.9302840000000003    2.5373470000000000
Fe     -2.2609640000000000   -5.9315170000000004    2.5379860000000001
Fe      1.2362700000000000   -3.8041930000000002    2.7949240000000000
Fe      2.4918930000000001   -5.9712839999999998    2.2126730000000001
Fe      2.4870960000000002   -1.6166100000000001    2.2128530000000000
Fe      1.0028760000000001   -7.3732490000000004    0.6419350000000000
Fe      3.2087189999999999   -3.7952279999999998    1.1354470000000001
Fe      0.0495580000000000   -1.6828700000000001    2.5424780000000000
Fe     -3.4496639999999998   -3.8049599999999999    2.7926669999999998
Fe     -4.7067150000000000   -5.9755289999999999    2.2083740000000001
Fe      3.1433209999999998   -5.8630690000000003   -0.1937010000000000
Fe      1.0858410000000001   -4.9581559999999998    0.5715620000000000
Fe     -2.2592889999999999   -1.6837670000000000    2.5420829999999999
Fe     -1.1068970000000000   -3.8024659999999999    1.2686020000000000
Fe     -3.2167590000000001   -7.3754700000000000    0.6407640000000000
Fe     -1.1071439999999999   -5.9294609999999999    0.1369410000000000
Fe      1.0823989999999999   -2.6384219999999998    0.5749170000000000
Fe     -4.7021790000000001   -1.6266929999999999    2.2094330000000002
Fe     -1.1063680000000000   -7.9225029999999999   -1.0700200000000000
Fe     -3.2996479999999999   -4.9609790000000000    0.5706980000000000
Fe      3.1418900000000001   -1.7269420000000000   -0.1916400000000000
Fe     -1.1023289999999999    0.3207590000000000    1.6249990000000001
Fe      1.0228170000000001   -0.2122140000000000    0.6522740000000000
Fe      1.0748610000000001   -6.2648799999999998   -1.4624539999999999
Fe     -5.4224909999999999   -3.8004889999999998    1.1305170000000000
Fe      2.3615320000000000   -3.7943600000000002   -1.4232039999999999
Fe     -3.2955120000000000   -2.6437759999999999    0.5728259999999999
Fe     -1.1057640000000000   -1.6692499999999999    0.1347700000000000
Fe     -5.3574450000000002   -5.8685179999999999   -0.1973780000000000
Fe      0.0578060000000000   -3.7979170000000000   -1.2890440000000001
Fe     -3.2319860000000000   -0.2292420000000000    0.6508470000000000
Fe     -3.2883089999999999   -6.2661199999999999   -1.4637510000000000
Fe      1.0706199999999999   -1.3227620000000000   -1.4502990000000000
Fe     -2.2717559999999999   -3.7990979999999999   -1.2899600000000000
Fe     -1.1066910000000001   -5.7584540000000004   -2.2812030000000001
Fe      0.1116440000000000   -7.5219160000000000   -3.3526490000000000
Fe     -5.3555900000000003   -1.7328900000000000   -0.1970290000000000
Fe     -1.1041350000000001    0.3165500000000000   -1.0742210000000001
Fe     -4.5754700000000001   -3.7989250000000001   -1.4258530000000000
Fe     -2.3236810000000001   -7.5222100000000003   -3.3533179999999998
Fe      1.0226080000000000   -5.0363519999999999   -3.4932590000000001
Fe     -3.2864270000000002   -1.3261390000000000   -1.4540450000000000
Fe     -1.1079770000000000   -1.8412690000000000   -2.2854990000000002
Fe      1.0205610000000001   -2.5536180000000002   -3.4871270000000001
Fe     -1.1076109999999999   -3.7999600000000000   -3.5532889999999999
Fe     -3.2363430000000002   -5.0376779999999997   -3.4945590000000002
Fe     -1.1062019999999999   -5.8706980000000000   -4.7904600000000004
Fe      0.1042690000000000   -0.0591260000000000   -3.3396430000000001
Fe     -3.2361350000000000   -2.5549729999999999   -3.4889510000000001
Fe     -2.3200379999999998   -0.0604620000000000   -3.3398289999999999
Fe      0.1634080000000000   -3.7911869999999999   -5.5535030000000001
Fe     -1.1073310000000001   -1.7170730000000001   -4.7870900000000001
Fe     -2.3764889999999999   -3.7918980000000002   -5.5541210000000003
