  101
 
C      -1.3999320000000000    3.2529780000000001   -0.0054470000000000
C      -2.1510889999999998    1.5125510000000000   -1.5408690000000000
C       0.0290940000000000    5.2236359999999999   -0.7346990000000000
C      -1.7409910000000000    1.6986250000000001   -4.0655559999999999
C       0.0935570000000000    5.6409390000000004    2.3498559999999999
C      -3.1469250000000000   -0.9898150000000000   -4.6400379999999997
C      -1.3035220000000001   -1.3831789999999999   -6.3522449999999999
C      -1.6303930000000000    7.4810569999999998    2.0069379999999999
C      -0.7443419999999999    3.9485000000000001   -1.0530489999999999
C      -1.5243739999999999    2.1938029999999999   -2.6404960000000002
C      -0.8069710000000000    3.4032460000000002   -2.3726690000000001
C      -2.1971650000000000    2.0730249999999999   -0.2076960000000000
C      -4.8067080000000004    0.1918360000000000    1.8822110000000001
C      -0.7598780000000001    6.4208189999999998    1.3810720000000001
C      -1.7046710000000000   -0.7351110000000000   -5.0381190000000000
C      -3.9646590000000002    0.4860250000000000    0.7661600000000000
C      -2.9639620000000000    1.5247219999999999    0.9042980000000000
C      -0.9995520000000000    0.4633940000000000   -4.6121679999999996
C      -0.7832860000000000    6.2207850000000002    0.0484150000000000
H       0.7583330000000000    3.9363130000000002   -3.3524710000000000
H      -6.2221479999999998   -0.8503240000000000    2.5368689999999998
H      -4.1703299999999999   -0.0116820000000000   -0.1808210000000000
H      -3.1332990000000001    2.2447720000000002    1.7109600000000000
H      -0.1954130000000000    0.7527100000000000   -5.3040279999999997
H      -1.4733820000000000    6.8303050000000001   -0.5439540000000000
H      -1.3478209999999999    3.6607090000000002    1.0045470000000001
H      -2.7631679999999998    0.6194030000000000   -1.7731230000000000
H       0.9492470000000000    4.9552079999999998   -0.1945860000000000
H       0.3434810000000000    5.6765480000000004   -1.6852689999999999
H      -2.8251339999999998    1.5386610000000001   -4.1655189999999997
H      -1.4878520000000000    2.5390480000000002   -4.7247750000000002
H       0.7877670000000000    6.3059310000000002    2.8889480000000001
H      -0.5359460000000000    5.1639429999999997    3.1201189999999999
H       0.6867130000000000    4.8449759999999999    1.8786380000000000
H      -3.8424209999999999   -0.5845430000000000   -5.4006780000000001
H      -3.3448750000000000   -2.0697429999999999   -4.5662529999999997
H      -3.4150770000000001   -0.5483580000000000   -3.6723379999999999
H      -0.2278740000000000   -1.2830459999999999   -6.5571149999999996
H      -1.5558959999999999   -2.4541360000000001   -6.3746520000000002
H      -1.8451150000000001   -0.9013270000000000   -7.1896019999999998
H      -2.3135800000000000    7.0463719999999999    2.7546110000000001
H      -1.0193650000000001    8.2290019999999995    2.5385399999999998
H      -2.2333959999999999    8.0053000000000001    1.2544029999999999
O      -4.5514939999999999    0.5983450000000000    3.0617830000000001
O      -0.2052350000000000    4.0652460000000001   -3.4435030000000002
O      -5.8705200000000000   -0.6363060000000000    1.6479079999999999
Fe      2.0899440000000000   -2.7656540000000001    5.1766129999999997
Fe      1.7512820000000000   -6.5559000000000003    2.4674749999999999
Fe      3.0853410000000001   -4.6696629999999999    3.6373639999999998
Fe      0.7906280000000000   -4.7217460000000004    3.9088349999999998
Fe      4.3137379999999999   -2.5668859999999998    4.0224399999999996
Fe      5.5199959999999999   -4.5715969999999997    3.0047860000000002
Fe      5.5244830000000000   -0.3558350000000000    3.5727400000000000
Fe      3.7461549999999999   -5.7871129999999997    1.4591680000000000
Fe      6.0299300000000002   -2.3103880000000001    2.1039620000000001
Fe      3.1100140000000001   -0.4481160000000000    4.2347190000000001
Fe     -0.3309270000000000   -2.6772040000000001    4.6508589999999996
Fe     -1.6999670000000000   -4.7206099999999998    3.9445020000000000
Fe      5.7697300000000000   -4.2935090000000002    0.5674180000000000
Fe      3.8546890000000000   -3.4063349999999999    1.7242610000000000
Fe      0.8339470000000000   -0.5360600000000000    4.5907749999999998
Fe      1.7691110000000001   -2.3960979999999998    2.8513310000000001
Fe     -0.4565630000000000   -5.8520029999999998    1.9608110000000001
Fe      1.5911519999999999   -4.3002190000000002    1.4080170000000001
Fe      3.8517489999999999   -1.0830420000000001    2.0452460000000001
Fe     -1.6544390000000000   -0.5237780000000000    4.6384920000000003
Fe      1.3745529999999999   -6.0522369999999999   -0.0988880000000000
Fe     -0.5154460000000000   -3.4550310000000000    2.2955260000000002
Fe      5.7848150000000000    0.0333270000000000    1.1513030000000000
Fe      1.8460120000000000    1.6729550000000000    3.7677529999999999
Fe      3.8096429999999999    1.2804510000000000    2.4592950000000000
Fe      3.5616850000000002   -4.3824660000000000   -0.4607320000000000
Fe     -2.5175040000000002   -2.4510310000000000    3.3055970000000001
Fe      4.8681219999999996   -1.9493069999999999   -0.1975110000000000
Fe     -0.5021200000000000   -1.1608550000000000    2.6519599999999999
Fe      1.6006980000000000   -0.1438530000000000    2.0520049999999999
Fe     -2.6553779999999998   -4.3857330000000001    1.6986349999999999
Fe      2.5632779999999999   -2.0043340000000001    0.2093420000000000
Fe     -0.3748630000000000    1.1707669999999999    3.1707310000000000
Fe     -0.8192820000000000   -4.3860359999999998    0.1033690000000000
Fe      3.5655869999999998    0.4678730000000000    0.2412230000000000
Fe      0.2574790000000000   -1.9890230000000000    0.4876630000000000
Fe      1.2621650000000000   -3.7743440000000001   -0.9530240000000000
Fe      2.3600669999999999   -5.2456209999999999   -2.4475600000000002
Fe     -2.6433610000000001   -0.1698870000000000    2.3191030000000001
Fe      1.4862329999999999    1.9648170000000000    1.1888580000000000
Fe     -2.0599569999999998   -2.0549659999999998    0.7317440000000000
Fe     -0.1626500000000000   -5.2786130000000000   -2.0939459999999999
Fe      3.2585050000000000   -2.8820760000000001   -2.2860450000000001
Fe     -0.8452480000000000    0.5311460000000000    0.9136860000000000
Fe      1.2968560000000000    0.1286310000000000   -0.3578840000000000
Fe      3.2705660000000001   -0.4148700000000000   -1.9271570000000000
Fe      1.1629810000000000   -1.6474310000000001   -1.8547959999999999
Fe     -1.0035750000000001   -2.8939680000000001   -1.7683709999999999
Fe      0.9073290000000001   -3.4733489999999998   -3.4404580000000000
Fe      2.2701110000000000    1.9705459999999999   -1.3502660000000000
Fe     -0.9466890000000000   -0.5254660000000000   -1.2918810000000001
Fe     -0.1223940000000000    1.9283870000000001   -1.0920870000000000
Fe      2.2092600000000000   -1.4113510000000000   -3.9699830000000000
Fe      0.9524120000000000    0.5247070000000000   -2.8665870000000000
Fe     -0.4303130000000000   -1.3011600000000001   -3.6049650000000000
