   76
 
O      -0.4301610000000000    3.5717810000000001   -5.0702879999999997
C       0.2834360000000000    2.4676019999999999   -4.5768639999999996
C       1.2355700000000001    2.5946609999999999   -3.4868380000000001
C       2.2266189999999999    1.5081110000000000   -3.2872059999999999
C       2.2043390000000000    0.3712910000000000   -4.1864929999999996
C       1.3108910000000000    0.3175130000000000   -5.3100230000000002
C       0.3298310000000000    1.3440600000000000   -5.4569400000000003
O      -0.4581190000000000    1.3441959999999999   -6.5655549999999998
C       3.1091950000000002    1.5587990000000000   -2.1470470000000001
C       3.7782330000000002    0.3745080000000000   -1.6511260000000001
C       4.6017789999999996    0.4240240000000000   -0.4551920000000000
O       4.9664089999999996    1.5239860000000001    0.1824470000000000
O       5.4525110000000003   -0.6872080000000000   -0.3541530000000000
H      -0.9395220000000000    3.9320700000000000   -4.3096360000000002
H       1.5877060000000001    3.6335250000000001   -3.3002470000000002
H       3.0692219999999999   -0.2915190000000000   -4.1939500000000001
H       1.4882869999999999   -0.3565670000000000   -6.1500469999999998
H      -0.9670000000000000    2.1838020000000000   -6.5288950000000003
H       3.3328240000000000    2.5206810000000002   -1.6764730000000001
H       4.0080809999999998   -0.4592990000000000   -2.3149150000000001
Fe     -0.6379490000000000   -0.4809130000000000    5.4894639999999999
Fe     -0.8195410000000000   -4.6587790000000000    3.4605280000000000
Fe      0.3984730000000000   -2.6531840000000000    4.3549340000000001
Fe     -1.9105529999999999   -2.5770059999999999    4.4483819999999996
Fe      1.6600070000000000   -0.5750760000000000    4.5791760000000004
Fe      2.8546049999999998   -2.7769759999999999    4.0002279999999999
Fe      3.0227130000000000    1.5116130000000001    3.9770470000000002
Fe      1.3009340000000000   -4.1555070000000001    2.4729939999999999
Fe      3.6164700000000001   -0.6325820000000000    2.8906450000000001
Fe      0.5693150000000000    1.5938690000000000    4.3184009999999997
Fe     -2.9869599999999998   -0.4015750000000000    4.6919639999999996
Fe     -4.3837060000000001   -2.4884149999999998    4.1777480000000002
Fe      3.4413930000000001   -2.7920560000000001    1.6141190000000001
Fe      1.4892690000000000   -1.7352380000000001    2.3422660000000000
Fe     -1.7365720000000000    1.6646099999999999    4.3556689999999998
Fe     -0.6799660000000000   -0.5081780000000000    3.0979450000000002
Fe     -2.9435180000000001   -3.9881530000000001    2.5977820000000000
Fe     -0.7758790000000000   -2.6314380000000002    1.9968420000000000
Fe      1.5386160000000000    0.5844000000000000    2.3452690000000000
Fe     -4.2046679999999999    1.7952310000000000    4.0918640000000002
Fe     -0.9135350000000000   -4.6306859999999999    0.8200000000000000
Fe     -2.9310100000000001   -1.5943970000000001    2.4826720000000000
Fe      3.6203599999999998    1.4754030000000000    1.5153820000000000
Fe     -0.5516120000000000    3.6320139999999999    3.3548410000000000
Fe      1.5620220000000000    2.9870709999999998    2.4469379999999998
Fe      1.3424100000000001   -3.0823109999999998    0.3450720000000000
Fe     -5.0051119999999996   -0.3580960000000000    3.0600969999999998
Fe      2.8060060000000000   -0.5832420000000000    0.2894200000000000
Fe     -2.8587729999999998    0.7272400000000000    2.4451260000000001
Fe     -0.6385050000000000    1.5997330000000001    1.9237789999999999
Fe     -5.0469980000000003   -2.5188009999999998    1.7941250000000000
Fe      0.4376540000000000   -0.5969150000000000    0.5301300000000000
Fe     -2.7146140000000001    3.1312430000000000    2.4470550000000002
Fe     -3.0301100000000001   -2.9024649999999999    0.4636950000000000
Fe      1.4722430000000000    1.9203800000000000    0.3374130000000000
Fe     -1.8801150000000000   -0.4939630000000000    0.5696530000000000
Fe     -0.8422120000000000   -2.5138780000000001   -0.4297930000000000
Fe      0.2545020000000000   -4.2999440000000000   -1.5177860000000001
Fe     -4.9060649999999999    1.7288600000000001    1.7034780000000000
Fe     -0.7234250000000000    3.5981969999999999    0.7014030000000000
Fe     -4.2183650000000004   -0.4424650000000000    0.5364180000000000
Fe     -2.2166739999999998   -4.2068500000000002   -1.4443839999999999
Fe      1.2514940000000001   -1.9534629999999999   -1.7552650000000001
Fe     -2.8699189999999999    1.9592229999999999    0.3804490000000000
Fe     -0.6972940000000000    1.4103370000000000   -0.5002910000000000
Fe      1.4945569999999999    0.4829580000000000   -1.5515800000000000
Fe     -0.7564560000000000   -0.5709680000000000   -1.7151870000000000
Fe     -2.9771600000000000   -1.7068930000000000   -1.5951350000000000
Fe     -0.9820500000000000   -2.6493229999999999   -2.9548220000000001
Fe      0.4088630000000000    3.1779489999999999   -1.5280300000000000
Fe     -2.8294950000000001    0.7634280000000000   -1.6666529999999999
Fe     -1.9864200000000001    3.2083960000000000   -1.5537390000000000
Fe      0.3109100000000000   -0.6536270000000000   -3.8005350000000000
Fe     -0.6982520000000000    1.5184979999999999   -3.0056639999999999
Fe     -2.1593749999999998   -0.5247250000000000   -3.6762700000000001
H       5.9429330000000000   -0.5562170000000000    0.4834260000000000
