   76
 
O      -4.5731539999999997   -0.4601070000000000   -3.8964279999999998
C      -3.5327210000000000    0.2146800000000000   -4.4976919999999998
C      -2.2697400000000001   -0.3703170000000000   -4.7060599999999999
C      -1.1688000000000001    0.4195260000000000   -5.2063189999999997
C      -1.4409230000000000    1.7890580000000000   -5.4853639999999997
C      -2.7263780000000000    2.3147210000000000   -5.3801810000000003
C      -3.7834970000000001    1.5422890000000000   -4.8753460000000004
O      -5.0114609999999997    2.1041240000000001   -4.6901320000000002
C       0.1864920000000000   -0.1534940000000000   -5.1454930000000001
C       1.3725820000000000    0.6816930000000000   -5.2712859999999999
C       2.7069760000000000    0.1668630000000000   -5.4766029999999999
O       2.7953619999999999   -1.1507030000000000   -4.9084880000000002
O       3.7045020000000002    0.7212769999999999   -5.9052910000000001
H      -4.2069890000000001   -0.9620919999999999   -3.1356400000000000
H      -2.1761110000000001   -1.4554270000000000   -4.5809449999999998
H      -0.6395890000000000    2.4315220000000002   -5.8515050000000004
H      -2.9217200000000001    3.3580390000000002   -5.6397979999999999
H      -5.5608579999999996    1.4320280000000001   -4.2367179999999998
H       0.2742870000000000   -1.2065250000000001   -5.4261309999999998
H       1.2761279999999999    1.7383580000000001   -5.5281140000000004
Fe      0.4901790000000000   -0.4820690000000000    6.0095099999999997
Fe      0.2586450000000000   -4.5098019999999996    3.7016710000000002
Fe      1.5300590000000001   -2.6013929999999998    4.7762969999999996
Fe     -0.7732150000000000   -2.4771429999999999    4.7755260000000002
Fe      2.8383270000000000   -0.5591480000000000    5.1460119999999998
Fe      3.9664229999999998   -2.7471160000000001    4.4604100000000004
Fe      4.1987050000000004    1.5606700000000000    4.6922189999999997
Fe      2.4083649999999999   -3.9835099999999999    2.8065820000000001
Fe      4.8062579999999997   -0.5777320000000000    3.4743230000000001
Fe      1.7596410000000000    1.6338340000000000    5.0125400000000004
Fe     -1.8600790000000000   -0.3058700000000000    5.1650739999999997
Fe     -3.2252960000000002   -2.3630599999999999    4.4847700000000001
Fe      4.6200999999999999   -2.5587430000000002    2.0364810000000002
Fe      2.6140859999999999   -1.5784609999999999    2.8652259999999998
Fe     -0.5440100000000000    1.7576410000000000    5.0211670000000002
Fe      0.4891290000000000   -0.3447780000000000    3.6263519999999998
Fe     -1.8383550000000000   -3.7502019999999998    2.8093569999999999
Fe      0.3689070000000000   -2.3961739999999998    2.3807239999999998
Fe      2.7466249999999999    0.7328640000000000    2.9887350000000001
Fe     -2.9833669999999999    1.9585740000000000    4.7311680000000003
Fe      0.2455480000000000   -4.2957879999999999    1.0594760000000001
Fe     -1.7757240000000001   -1.3417559999999999    2.8811130000000000
Fe      4.8452840000000004    1.5562400000000001    2.2636240000000001
Fe      0.7134400000000000    3.7637969999999998    4.1950040000000000
Fe      2.7967050000000002    3.1288589999999998    3.1903579999999998
Fe      2.5254859999999999   -2.7585350000000002    0.7640100000000000
Fe     -3.8301989999999999   -0.0946090000000000    3.5216219999999998
Fe      3.9458609999999998   -0.3929500000000000    0.9204210000000000
Fe     -1.6396299999999999    0.9729610000000000    3.0154049999999999
Fe      0.6025090000000000    1.8365549999999999    2.6130260000000001
Fe     -3.8808980000000002   -2.0838649999999999    2.0836060000000001
Fe      1.6478940000000000   -0.2621970000000000    1.0789110000000000
Fe     -1.4390670000000001    3.3671929999999999    3.2258969999999998
Fe     -1.8436870000000001   -2.5141600000000000    0.7700360000000001
Fe      2.7976990000000002    2.1355800000000000    1.0217780000000001
Fe     -0.6775590000000000   -0.1245420000000000    1.1039580000000000
Fe      0.3721900000000000   -2.0758679999999998   -0.0202860000000000
Fe      1.4847450000000000   -3.8517079999999999   -1.1801580000000000
Fe     -3.6472259999999999    2.0386750000000000    2.3131059999999999
Fe      0.7200660000000000    3.8768110000000000    1.5166539999999999
Fe     -2.9834380000000000    0.0016700000000000    0.9469430000000000
Fe     -0.9631030000000000   -3.6902569999999999   -1.1949069999999999
Fe      2.5333969999999999   -1.4160029999999999   -1.2141139999999999
Fe     -1.5630160000000000    2.3851599999999999    1.0551670000000000
Fe      0.5892080000000000    1.8011489999999999    0.1778810000000000
Fe      2.6670850000000002    1.0306370000000000   -1.1057220000000001
Fe      0.4810430000000000   -0.0696100000000000   -1.1506600000000000
Fe     -1.7010490000000000   -1.1613840000000000   -1.1724669999999999
Fe      0.3713100000000000   -2.0747680000000002   -2.5002480000000000
Fe      1.9064700000000001    3.5467860000000000   -0.7855100000000000
Fe     -1.5938129999999999    1.2756160000000001   -1.0458829999999999
Fe     -0.5298010000000000    3.6886480000000001   -0.7622570000000000
Fe      1.6381120000000000   -0.0134890000000000   -3.2674599999999998
Fe      0.5973160000000000    2.0615749999999999   -2.3135580000000000
Fe     -0.7863500000000000    0.1206580000000000   -3.1661100000000002
H       3.7528769999999998   -1.3561890000000001   -4.8751910000000001
