   76
 
O      -3.6036950000000001   -0.9239590000000000   -3.5149420000000000
C      -4.2142780000000002   -0.4481570000000000   -2.3780649999999999
C      -4.0345440000000004    0.8594740000000000   -1.8891840000000000
C      -4.7312599999999998    1.3043340000000001   -0.7126180000000000
C      -5.5909690000000003    0.3623530000000000   -0.0761340000000000
C      -5.7866629999999999   -0.9198120000000000   -0.5868150000000000
C      -5.0827280000000004   -1.3418669999999999   -1.7208310000000000
O      -5.2134359999999997   -2.6133579999999998   -2.1859310000000001
C      -4.2968190000000002    2.5630190000000002   -0.0863630000000000
C      -4.2811779999999997    2.6014300000000001    1.3438619999999999
C      -3.4270499999999999    3.3672399999999998    2.2115250000000000
O      -2.6961919999999999    4.4473419999999999    1.6502650000000001
O      -3.3992969999999998    3.2210700000000001    3.4936600000000002
H      -2.6072880000000000   -0.7579720000000000   -3.4272350000000000
H      -3.4603780000000000    1.5692109999999999   -2.4855239999999998
H      -6.1521439999999998    0.6624660000000000    0.8083810000000000
H      -6.4550679999999998   -1.6215949999999999   -0.0884930000000000
H      -4.5973490000000004   -2.6733490000000000   -2.9500860000000002
H      -3.9195820000000001    3.3853420000000001   -0.6963610000000000
H      -4.9673959999999999    1.9789049999999999    1.9158599999999999
Fe      1.5300110000000000   -0.1884910000000000    4.4109059999999998
Fe      1.9895550000000000   -4.3559669999999997    2.4222950000000001
Fe      2.9264350000000001   -2.2102029999999999    3.3548390000000001
Fe      0.6281920000000000   -2.4119180000000000    3.3225020000000001
Fe      3.8949590000000001    0.0225810000000000    3.5709430000000002
Fe      5.3860010000000003   -2.0141030000000000    3.0450560000000002
Fe      4.9338600000000001    2.2934860000000001    2.9720939999999998
Fe      4.0737019999999999   -3.5898189999999999    1.4917929999999999
Fe      5.8997229999999998    0.1807320000000000    1.9353350000000000
Fe      2.5016180000000001    2.0308340000000000    3.2575059999999998
Fe     -0.7854350000000000   -0.3863370000000000    3.5092430000000001
Fe     -1.7840860000000001   -2.7047110000000001    2.9793520000000000
Fe      6.0819400000000003   -1.9357120000000001    0.6609270000000000
Fe      3.9080210000000002   -1.1885030000000001    1.3740319999999999
Fe      0.2021010000000000    1.8224490000000000    3.2344480000000000
Fe      1.5748219999999999   -0.2239740000000000    2.0372550000000000
Fe     -0.1526540000000000   -4.0035819999999998    1.4563200000000001
Fe      1.8136000000000001   -2.3510059999999999    0.9417900000000000
Fe      3.6613030000000002    1.1262570000000001    1.3297000000000001
Fe     -2.2381289999999998    1.6890250000000000    2.8988900000000002
Fe      2.0181450000000001   -4.3616349999999997   -0.2172410000000000
Fe     -0.4748820000000000   -1.5906979999999999    1.3215159999999999
Fe      5.6480610000000002    2.2133910000000001    0.5780360000000000
Fe      1.1873229999999999    3.9194990000000001    2.2523219999999999
Fe      3.3626070000000001    3.5255160000000001    1.3408100000000001
Fe      4.0739429999999999   -2.5228510000000002   -0.6369270000000000
Fe     -2.7267839999999999   -0.6881810000000000    1.8593029999999999
Fe      5.0983060000000000    0.0419710000000000   -0.6113210000000000
Fe     -0.7630160000000000    0.7120480000000000    1.2735980000000000
Fe      1.3730899999999999    1.8583550000000000    0.8525580000000000
Fe     -2.4109409999999998   -2.7698640000000001    0.5569310000000000
Fe      2.7761559999999998   -0.1677180000000000   -0.5017280000000000
Fe     -0.8555100000000000    3.1633860000000000    1.2534350000000001
Fe     -0.3102630000000000   -2.9445960000000002   -0.6687640000000000
Fe      3.5729150000000001    2.3806859999999999   -0.7370830000000000
Fe      0.4712440000000000   -0.3864690000000000   -0.5528149999999999
Fe      1.8430160000000000   -2.2580130000000000   -1.4822919999999999
Fe      3.2286450000000002   -3.9135759999999999   -2.5016820000000002
Fe     -2.8988839999999998    1.2161709999999999    0.3822050000000000
Fe      1.1995690000000001    3.8114080000000001   -0.3904350000000000
Fe     -1.8328700000000000   -0.6822680000000000   -0.7351380000000000
Fe      0.7940700000000001   -4.1205189999999998   -2.5425300000000002
Fe      3.9242740000000000   -1.3541960000000000   -2.6884389999999998
Fe     -0.8071410000000000    1.9331600000000000   -0.7747790000000000
Fe      1.4519100000000000    1.6504070000000000   -1.5655870000000001
Fe      3.6756600000000001    1.1109670000000000   -2.7285849999999998
Fe      1.7076610000000001   -0.3306860000000000   -2.7903069999999999
Fe     -0.3043090000000000   -1.7491319999999999   -2.7449610000000000
Fe      1.8975280000000001   -2.4221750000000002   -4.0018240000000000
Fe      2.4762469999999999    3.4898020000000001   -2.6679379999999999
Fe     -0.5319520000000000    0.6735570000000000   -2.8014960000000002
Fe      0.0484760000000000    3.2202430000000000   -2.7026100000000000
Fe      2.9360149999999998   -0.2508700000000000   -4.8029010000000003
Fe      1.4876790000000000    1.7017180000000001   -4.0884539999999996
Fe      0.4325550000000000   -0.5086930000000000   -4.8286829999999998
H      -2.3679600000000001    4.9445139999999999    2.4329790000000000
