   76
 
O       3.2024629999999998    1.5638270000000001    3.1312440000000001
C       2.8362059999999998    1.7680279999999999    4.4413710000000002
C       1.5279879999999999    1.8446650000000000    4.9010629999999997
C       1.2636190000000000    2.0397170000000000    6.2766830000000002
C       2.3581080000000001    2.1714169999999999    7.1601689999999998
C       3.6674690000000001    2.1024270000000000    6.6997049999999998
C       3.9161570000000001    1.8936610000000000    5.3394709999999996
O       5.1937530000000001    1.7993269999999999    4.8779810000000001
C      -0.1206920000000000    2.0902379999999998    6.7098250000000004
C      -0.5989040000000000    2.2995440000000000    7.9599399999999996
C      -2.0542050000000001    2.3153920000000001    8.2042719999999996
O      -2.9164370000000002    2.0400250000000000    7.3916160000000000
O      -2.4303960000000000    2.6847479999999999    9.4832900000000002
H       2.4458430000000000    1.1398310000000000    2.6050629999999999
H       0.7026019999999999    1.7549490000000001    4.1899910000000000
H       2.1857690000000001    2.3239550000000002    8.2254749999999994
H       4.5150389999999998    2.1936710000000001    7.3791359999999999
H       5.1234019999999996    1.6029160000000000    3.9200740000000001
H      -0.8783490000000000    1.9413670000000001    5.9325080000000003
H       0.0733830000000000    2.4643180000000000    8.8070109999999993
Fe     -0.4366350000000000   -0.6814600000000000    1.9494240000000000
Fe     -0.5137400000000000   -4.8647280000000004   -0.0617330000000000
Fe      0.6589590000000000   -2.8248099999999998    0.8440130000000000
Fe     -1.6424209999999999   -2.8229060000000001    0.8917860000000000
Fe      1.8452420000000000   -0.6834110000000000    1.0384240000000000
Fe      3.0960529999999999   -2.8534570000000001    0.4888600000000000
Fe      3.0969400000000000    1.5301979999999999    0.3799760000000000
Fe      1.5934090000000001   -4.2892450000000002   -1.0426839999999999
Fe      3.7966530000000001   -0.6978160000000000   -0.6431160000000000
Fe      0.6716140000000000    1.4185350000000001    0.7788510000000000
Fe     -2.8142360000000002   -0.6929760000000000    1.1602830000000000
Fe     -4.0848839999999997   -2.8666939999999999    0.6202770000000000
Fe      3.7034150000000001   -2.7909980000000001   -1.9381710000000001
Fe      1.6635899999999999   -1.8748410000000000   -1.1518820000000001
Fe     -1.6289560000000001    1.4365749999999999    0.8551080000000000
Fe     -0.5120450000000000   -0.7106440000000001   -0.4328890000000000
Fe     -2.6509700000000000   -4.2873349999999997   -0.9722860000000000
Fe     -0.5370840000000000   -2.8528899999999999   -1.5398270000000001
Fe      1.6670450000000001    0.4460890000000000   -1.1952959999999999
Fe     -4.0750750000000000    1.4783980000000001    0.5776340000000000
Fe     -0.5651040000000001   -4.8567200000000001   -2.7282169999999999
Fe     -2.7120519999999999   -1.8709510000000000   -1.0646789999999999
Fe      3.7189480000000001    1.3349359999999999   -2.0179190000000000
Fe     -0.4974450000000000    3.4439720000000000   -0.1156110000000000
Fe      1.5879799999999999    2.8730319999999998   -1.1523390000000000
Fe      1.6088670000000000   -3.2131880000000002   -3.1696360000000001
Fe     -4.8223339999999997   -0.7073390000000001   -0.4660150000000000
Fe      2.9047170000000002   -0.7523550000000000   -3.1945269999999999
Fe     -2.7122700000000002    0.4483710000000000   -1.0827450000000001
Fe     -0.5306100000000000    1.4118930000000001   -1.5808700000000000
Fe     -4.7890639999999998   -2.7822960000000001   -1.7847880000000000
Fe      0.6043240000000000   -0.7423880000000000   -3.0164350000000000
Fe     -2.6306430000000001    2.8636810000000001   -1.0449830000000000
Fe     -2.7465709999999999   -3.1999369999999998   -3.0860940000000001
Fe      1.6208220000000000    1.7298330000000000   -3.2318210000000001
Fe     -1.7233680000000000   -0.7306970000000000   -2.9639519999999999
Fe     -0.5844140000000000   -2.7044720000000000   -3.9629620000000001
Fe      0.6091150000000000   -4.4842019999999998   -5.0373099999999997
Fe     -4.7854349999999997    1.3489040000000001   -1.8202529999999999
Fe     -0.5490520000000000    3.3923679999999998   -2.8101379999999998
Fe     -4.0315870000000000   -0.7246870000000000   -3.0460729999999998
Fe     -1.8265590000000000   -4.4822959999999998   -4.9836859999999996
Fe      1.5221389999999999   -2.0059840000000002   -5.2202840000000004
Fe     -2.7408880000000000    1.7333019999999999   -3.1379220000000001
Fe     -0.5774760000000000    1.2155460000000000   -4.0026840000000004
Fe      1.5282169999999999    0.4750850000000000   -5.2453419999999999
Fe     -0.6075920000000000   -0.7590760000000000   -5.2521930000000001
Fe     -2.7373569999999998   -1.9961780000000000   -5.1355979999999999
Fe     -0.6366980000000000   -2.8477299999999999   -6.4679729999999998
Fe      0.6169370000000000    2.9675120000000001   -5.1138040000000000
Fe     -2.7316210000000001    0.4877830000000000   -5.1642869999999998
Fe     -1.8147700000000000    2.9731190000000001   -5.0650539999999999
Fe      0.6208180000000000   -0.7866720000000000   -7.2792430000000001
Fe     -0.6283170000000000    1.3001799999999999   -6.5114489999999998
Fe     -1.9166870000000000   -0.7795710000000000   -7.2309029999999996
H      -1.6282019999999999    2.9053049999999998    9.9919390000000003
