   76
 
O       0.2892420000000000   -6.5123220000000002    7.9046859999999999
C       0.1323710000000000   -6.4443820000000001    6.5318670000000001
C       0.5579790000000000   -5.3862769999999998    5.7407930000000000
C       0.3720860000000000   -5.4010330000000000    4.3394310000000003
C      -0.2718560000000000   -6.5223069999999996    3.7738930000000002
C      -0.7039620000000000   -7.5792599999999997    4.5685849999999997
C      -0.5026440000000000   -7.5572169999999996    5.9521139999999999
O      -0.9045040000000000   -8.6173880000000000    6.7157850000000003
C       0.8721040000000000   -4.2758919999999998    3.5706790000000002
C       0.9303240000000000   -4.1615739999999999    2.2126969999999999
C       1.5094770000000000   -3.0501209999999999    1.4935039999999999
O       2.4405929999999998   -2.2273559999999999    2.2087279999999998
O       1.8005100000000001   -3.2181460000000000    0.1818190000000000
H       0.7452660000000000   -5.7127809999999997    8.2159220000000008
H       1.0435410000000001   -4.5238680000000002    6.2061869999999999
H      -0.4445990000000000   -6.5729410000000001    2.6993360000000002
H      -1.1978899999999999   -8.4481859999999998    4.1333029999999997
H      -0.6593500000000000   -8.4155449999999998    7.6397680000000001
H       1.2374620000000001   -3.4380970000000000    4.1774769999999997
H       0.5516050000000000   -4.9564009999999996    1.5642490000000000
Fe     -0.0698160000000000    1.8718079999999999    2.5716790000000000
Fe      0.1544040000000000   -2.1158779999999999    0.3012840000000000
Fe      1.2033170000000000   -0.1415700000000000    1.3810199999999999
Fe     -1.1082369999999999   -0.2687860000000000    1.3402040000000000
Fe      2.2560519999999999    2.0447389999999999    1.6759340000000000
Fe      3.6466370000000001   -0.0114100000000000    0.9560360000000000
Fe      3.4020239999999999    4.3085420000000001    1.1723859999999999
Fe      2.3113589999999999   -1.4373769999999999   -0.6839260000000000
Fe      4.2188540000000003    2.2355190000000000   -0.0131330000000000
Fe      0.9661490000000000    4.1110559999999996    1.5497700000000001
Fe     -2.4297100000000000    1.7770720000000000    1.7088140000000001
Fe     -3.5321570000000002   -0.4352000000000000    1.0764620000000000
Fe      4.2691229999999996    0.2244410000000000   -1.4492339999999999
Fe      2.1563070000000000    0.9840210000000000   -0.6044280000000000
Fe     -1.3421470000000000    3.9694319999999998    1.5726300000000000
Fe     -0.1028610000000000    1.9699660000000001    0.1981210000000000
Fe     -2.0192450000000002   -1.7082379999999999   -0.5669300000000000
Fe      0.0221340000000000   -0.0858240000000000   -1.0587500000000001
Fe      2.0090819999999998    3.2958910000000001   -0.4782310000000000
Fe     -3.7775240000000001    3.9217590000000002    1.2824199999999999
Fe     -0.0230050000000000   -1.9851240000000001   -2.4075540000000002
Fe     -2.2225359999999998    0.7255530000000000   -0.5605260000000000
Fe      4.0048579999999996    4.3828209999999999   -1.2382930000000001
Fe     -0.3300070000000000    6.1101130000000001    0.7521720000000000
Fe      1.7948640000000000    5.7007930000000000   -0.2874780000000000
Fe      2.1917320000000000   -0.1916540000000000   -2.7075119999999999
Fe     -4.4191960000000003    1.7411430000000001    0.1207380000000000
Fe      3.3281550000000002    2.3198970000000001   -2.5437639999999999
Fe     -2.3750450000000001    3.0601039999999999   -0.4384760000000000
Fe     -0.2330090000000000    4.1553570000000004   -0.8302440000000000
Fe     -4.2678399999999996   -0.2351720000000000   -1.3060140000000000
Fe      1.0125139999999999    2.1831740000000002   -2.3823310000000002
Fe     -2.4060959999999998    5.4822259999999998   -0.2551580000000000
Fe     -2.2025950000000001   -0.4751590000000000   -2.6199370000000002
Fe      1.8984989999999999    4.7039119999999999   -2.4501409999999999
Fe     -1.3061739999999999    2.0470120000000001   -2.3594740000000001
Fe     -0.0512960000000000    0.2149320000000000   -3.4645440000000001
Fe      1.2113810000000000   -1.4153670000000000   -4.6386779999999996
Fe     -4.5075930000000000    3.8491749999999998   -1.1129450000000001
Fe     -0.4023470000000000    6.2060599999999999   -1.9374389999999999
Fe     -3.6273200000000001    1.9223509999999999   -2.4510909999999999
Fe     -1.2352289999999999   -1.5478540000000001   -4.6091749999999996
Fe      2.0162390000000001    1.1243860000000001   -4.6609489999999996
Fe     -2.4881910000000000    4.4559420000000003   -2.3920089999999998
Fe     -0.2807520000000000    4.1251670000000003   -3.2582949999999999
Fe      1.8691460000000000    3.5962740000000002   -4.5427970000000002
Fe     -0.1765990000000000    2.2348569999999999   -4.6259340000000000
Fe     -2.2371710000000000    0.8722090000000000   -4.6039649999999996
Fe     -0.0880820000000000    0.2335150000000000   -5.9693560000000003
Fe      0.8192020000000000    6.0016340000000001   -4.2550689999999998
Fe     -2.3807420000000001    3.3255469999999998   -4.4780920000000002
Fe     -1.6141900000000000    5.8642690000000002   -4.2206289999999997
Fe      1.0428130000000000    2.4016839999999999   -6.6540140000000001
Fe     -0.3283510000000000    4.3583759999999998   -5.7578259999999997
Fe     -1.4811129999999999    2.2564989999999998   -6.6157240000000002
H       2.6163590000000001   -2.6572550000000001    3.0739709999999998
