   76
 
O      -1.9345120000000000   -4.9596419999999997   -1.5654550000000000
C      -1.5055430000000001   -4.5767749999999996   -0.2882840000000000
C      -2.3915810000000000   -4.2872529999999998    0.7803600000000001
C      -1.8312660000000001   -3.9431539999999998    2.0657090000000000
C      -0.4481770000000000   -4.2724570000000002    2.3537260000000000
C       0.4008290000000000   -4.8431949999999997    1.3263980000000000
C      -0.1038970000000000   -4.7260900000000001   -0.0086640000000000
O       0.7114950000000000   -5.0220269999999996   -1.1029730000000000
C      -2.7102149999999998   -3.1617459999999999    2.9536280000000001
C      -2.1780469999999998   -2.0837569999999999    3.7494860000000001
C      -2.9887579999999998   -1.0238900000000000    4.2920740000000004
O      -4.2954350000000003   -1.3280190000000001    4.5442179999999999
O      -2.5472380000000001    0.1394890000000000    4.6062519999999996
H      -2.1754380000000002   -4.1227099999999997   -2.0275539999999999
H      -3.4695980000000000   -4.3059729999999998    0.6247490000000000
H      -0.1429420000000000   -4.3491819999999999    3.3978329999999999
H       1.2790770000000000   -5.4515039999999999    1.5421570000000000
H       0.0750490000000000   -5.2293630000000002   -1.8304229999999999
H      -3.7535010000000000   -3.4771260000000002    3.0689560000000000
H      -1.1010720000000001   -2.0217610000000001    4.0153980000000002
Fe      0.4923240000000000    1.0219130000000001    3.5815190000000001
Fe      0.7644080000000000   -2.8707110000000000    1.2553420000000000
Fe      1.8464900000000000   -0.9350090000000000    2.3370129999999998
Fe     -0.4663980000000000   -1.0460870000000000    2.2871169999999998
Fe      2.8571209999999998    1.2358420000000001    2.7655780000000001
Fe      4.2819219999999998   -0.7770290000000000    2.0664419999999999
Fe      3.9250820000000002    3.5522469999999999    2.4278110000000002
Fe      2.9441380000000001   -2.1834750000000001    0.3669090000000000
Fe      4.8590299999999997    1.5400000000000000    1.1952830000000001
Fe      1.4530870000000000    3.2555269999999998    2.6642779999999999
Fe     -1.9165740000000000    0.9115110000000000    2.8006690000000001
Fe     -2.8299070000000000   -1.4494670000000001    1.8712329999999999
Fe      4.9946489999999999   -0.4010270000000000   -0.2732150000000000
Fe      2.8092389999999998    0.2512750000000000    0.4735620000000000
Fe     -0.8545090000000000    3.1427839999999998    2.6187480000000001
Fe      0.5018080000000000    1.1740790000000001    1.2182949999999999
Fe     -1.3657459999999999   -2.5249450000000002    0.2090730000000000
Fe      0.6990870000000000   -0.8474560000000000   -0.0888570000000000
Fe      2.6466249999999998    2.5718500000000000    0.6787370000000000
Fe     -3.2827739999999999    2.9742389999999999    2.2197730000000000
Fe      1.0577030000000001   -2.7328269999999999   -1.4640750000000000
Fe     -1.5957820000000000   -0.0693940000000000    0.3654240000000000
Fe      4.6417739999999998    3.7451080000000001    0.0695790000000000
Fe      0.1740870000000000    5.2906199999999997    1.8795139999999999
Fe      2.3478230000000000    4.9573219999999996    0.9478620000000000
Fe      3.0095100000000001   -0.8687750000000000   -1.6148800000000001
Fe     -3.7980470000000000    0.8283770000000000    0.9567230000000000
Fe      4.0566319999999996    1.7092039999999999   -1.3382940000000001
Fe     -1.7528980000000001    2.2132489999999998    0.5804570000000000
Fe      0.3725140000000000    3.3845700000000001    0.2634040000000000
Fe     -3.5280719999999999   -1.0982000000000001   -0.5322800000000000
Fe      1.7329190000000001    1.4914200000000000   -1.2866770000000001
Fe     -1.8685030000000000    4.6131529999999996    0.7895160000000000
Fe     -1.3670890000000000   -1.2385429999999999   -1.7485720000000000
Fe      2.5733940000000000    4.0370160000000004   -1.2386189999999999
Fe     -0.5716980000000000    1.2977000000000001   -1.3679490000000001
Fe      0.7952979999999999   -0.4907650000000000   -2.4710399999999999
Fe      2.1877089999999999   -2.0648939999999998   -3.6293760000000002
Fe     -3.8668979999999999    2.9994589999999999   -0.2008850000000000
Fe      0.2335550000000000    5.4552690000000004   -0.7675720000000000
Fe     -2.9014509999999998    1.1188160000000000   -1.5658420000000000
Fe     -0.2471060000000000   -2.2228319999999999   -3.7220870000000001
Fe      2.8745769999999999    0.5055290000000000   -3.5532170000000001
Fe     -1.7960090000000000    3.6386210000000001   -1.3707720000000001
Fe      0.4502310000000000    3.4212579999999999   -2.1671490000000002
Fe      2.6691419999999999    2.9780950000000002   -3.3674320000000000
Fe      0.6496150000000001    1.5735159999999999   -3.5689540000000002
Fe     -1.3816649999999999    0.1683150000000000   -3.6525120000000002
Fe      0.8550940000000000   -0.3817180000000000   -4.9689030000000001
Fe      1.5378149999999999    5.3575830000000000   -3.0554229999999998
Fe     -1.5858779999999999    2.6318090000000001   -3.5113449999999999
Fe     -0.8956310000000000    5.1525129999999999   -3.1050330000000002
Fe      1.9795220000000000    1.8420479999999999   -5.5286790000000003
Fe      0.5074610000000001    3.7261069999999998   -4.6427230000000002
Fe     -0.5570650000000000    1.6064440000000000   -5.6039219999999998
H      -4.7246639999999998   -0.4844280000000000    4.7902540000000000
