   79
 
C       0.8592540000000000    4.2675669999999997   -0.3768190000000000
C      -0.9936870000000000    4.1169039999999999    1.3290999999999999
C      -0.0103360000000000    4.3548220000000004    2.3722620000000001
C       3.7635239999999999    4.4412469999999997   -0.7490540000000000
C      -0.5486000000000000    4.1724100000000002   -0.0713590000000000
C       1.8324659999999999    4.1696450000000000    0.6931910000000000
C       1.3782040000000000    4.2726740000000003    2.0604390000000001
C      -3.5159460000000000    2.9931540000000001   -2.1304170000000000
C      -1.4019170000000001    3.8079740000000002   -1.1682560000000000
C      -2.7656139999999998    3.2835619999999999   -0.9557600000000001
H       3.1570920000000000    4.6408740000000002    2.5966369999999999
H      -1.1988550000000000    4.2677019999999999   -2.1414520000000001
H      -3.3799009999999998    3.6592929999999999   -0.1260080000000000
H       1.1778420000000001    4.6612270000000002   -1.3432630000000001
H      -2.0107379999999999    4.4640240000000002    1.5423650000000000
H      -0.3011030000000000    4.6841489999999997    3.3709650000000000
H       4.8354100000000004    4.6075900000000001   -0.5966740000000000
H       3.5909870000000002    3.4302160000000002   -1.1567010000000000
H       3.3707690000000001    5.2021569999999997   -1.4412499999999999
O      -3.0199440000000002    2.8772380000000002   -3.3135379999999999
O      -4.8667069999999999    2.8838400000000002   -1.9966070000000000
O       2.2855610000000000    4.5752620000000004    3.0398230000000002
O       3.1648019999999999    4.5733170000000003    0.5515860000000000
Fe     -0.0716570000000000   -1.5557250000000000    4.1872970000000000
Fe     -0.0696530000000000   -5.7627470000000001    2.3513169999999999
Fe      1.1144110000000000   -3.6500130000000000    3.1626580000000000
Fe     -1.2218380000000000   -3.6884960000000002    3.2151489999999998
Fe      2.3148939999999998   -1.5598900000000000    3.2941229999999999
Fe      3.6023250000000000   -3.6994060000000002    2.8123629999999999
Fe      3.5721170000000000    0.5946290000000000    2.5766369999999998
Fe      2.0470640000000002   -5.2137950000000002    1.3905980000000000
Fe      4.2309320000000001   -1.5884180000000001    1.5802229999999999
Fe      1.1117589999999999    0.4960230000000000    2.9850919999999999
Fe     -2.4494579999999999   -1.5736019999999999    3.3522770000000000
Fe     -3.6605750000000001   -3.8085350000000000    2.9012199999999999
Fe      4.1475200000000001   -3.8419430000000001    0.4393700000000000
Fe      2.1116169999999999   -2.7954659999999998    1.1462930000000000
Fe     -1.2256400000000001    0.5097710000000000    3.0360410000000000
Fe     -0.0942990000000000   -1.6040170000000000    1.8027320000000000
Fe     -2.2028349999999999   -5.2341400000000000    1.4095020000000000
Fe     -0.0951950000000000   -3.7921589999999998    0.8133780000000000
Fe      2.0893440000000001   -0.4499850000000000    1.0336600000000000
Fe     -3.6496379999999999    0.6031370000000000    2.7345190000000001
Fe     -0.1134950000000000   -5.8415559999999997   -0.2794990000000000
Fe     -2.2922210000000001   -2.8020230000000002    1.2062440000000001
Fe      4.1395359999999997    0.5182800000000000    0.2090670000000000
Fe     -0.0958110000000000    2.3789889999999998    2.1143619999999999
Fe      2.0152830000000002    1.9989509999999999    0.9962160000000000
Fe      2.0667789999999999   -4.2257619999999996   -0.7860750000000000
Fe     -4.4243800000000002   -1.6491790000000000    1.7722720000000001
Fe      3.3854540000000002   -1.7391030000000001   -0.8494480000000000
Fe     -2.2957719999999999   -0.4696620000000000    1.0868350000000000
Fe     -0.1054390000000000    0.4770240000000000    0.5483660000000000
Fe     -4.3578500000000000   -3.7840929999999999    0.5445670000000000
Fe      1.0507290000000000   -1.7310360000000000   -0.7784280000000000
Fe     -2.2396430000000001    1.9402079999999999    1.1382429999999999
Fe     -2.3202280000000002   -4.2023809999999999   -0.7492580000000000
Fe      2.0872459999999999    0.6946000000000000   -1.0551349999999999
Fe     -1.2740990000000001   -1.7162150000000000   -0.7126320000000000
Fe     -0.1345380000000000   -3.7727610000000000   -1.6079030000000001
Fe      1.0973210000000000   -5.5468440000000001   -2.6194120000000001
Fe     -4.3979520000000001    0.3190530000000000    0.3642600000000000
Fe      0.1425160000000000    2.3749180000000001   -0.9259920000000000
Fe     -3.5974140000000001   -1.7504569999999999   -0.8046750000000000
Fe     -1.3639319999999999   -5.5841560000000001   -2.5583879999999999
Fe      1.9855200000000000   -3.1030190000000002   -2.8908450000000001
Fe     -2.3380610000000002    0.8285350000000000   -0.9654190000000000
Fe     -0.1350330000000000    0.1733620000000000   -1.8660150000000000
Fe      1.9733909999999999   -0.6620220000000000   -3.0652659999999998
Fe     -0.1653240000000000   -1.8841829999999999   -2.9760830000000000
Fe     -2.2948710000000001   -3.1054400000000002   -2.8457070000000000
Fe     -0.1900660000000000   -4.0080479999999996   -4.1119899999999996
Fe      1.2060640000000000    1.7583029999999999   -3.0618280000000002
Fe     -2.2791850000000000   -0.6246230000000000   -2.9181490000000001
Fe     -1.4084110000000001    1.7355280000000000   -3.1438329999999999
Fe      1.1026170000000000   -2.0128750000000002   -4.9981920000000004
Fe     -0.1651270000000000    0.0961540000000000   -4.3879440000000001
Fe     -1.4824660000000001   -1.9449120000000000   -4.9417439999999999
H      -5.1822460000000001    2.5463700000000000   -2.8601690000000000
