   79
 
C       1.4357789999999999   -2.5901040000000002    3.5666250000000002
C       3.6191610000000001   -1.7256640000000001    2.8379150000000002
C       3.9086230000000000   -2.9883500000000001    2.2344670000000000
C      -0.4009790000000000   -4.8077389999999998    3.5047280000000001
C       2.3768159999999998   -1.4849880000000000    3.5416349999999999
C       1.7498220000000000   -3.8550860000000000    3.0140300000000000
C       2.9641890000000002   -4.0417889999999996    2.2882039999999999
C       2.2367100000000000    2.2736839999999998    4.3846129999999999
C       1.9262500000000000   -0.1809420000000000    4.0183730000000004
C       2.8144450000000001    1.0034090000000000    4.1130199999999997
H       2.4488780000000001   -5.8032870000000001    1.8220760000000000
H       1.1142730000000001   -0.2368850000000000    4.7547329999999999
H       3.8551720000000000    0.8951700000000000    4.4329470000000004
H       0.4747270000000000   -2.4190939999999999    4.0557489999999996
H       4.3815520000000001   -0.9395930000000000    2.8138670000000001
H       4.8491439999999999   -3.1496870000000001    1.7075490000000000
H      -0.8346860000000000   -5.8120380000000003    3.5068069999999998
H      -0.4528040000000000   -4.3802839999999996    4.5167989999999998
H      -0.9498270000000000   -4.1594150000000001    2.7901229999999999
O       1.0016510000000001    2.6195990000000000    4.2251539999999999
O       3.0853079999999999    3.2393580000000002    4.8644670000000003
O       3.2542550000000001   -5.2551050000000004    1.7256520000000000
O       0.9606310000000000   -4.9764340000000002    3.0834410000000001
Fe     -1.3385490000000000    0.2244160000000000    2.7772619999999999
Fe     -1.7108110000000001   -3.5212840000000001    0.0955530000000000
Fe     -0.4076980000000000   -1.8954000000000000    1.4793930000000000
Fe     -2.6576680000000001   -1.4659210000000000    1.2348619999999999
Fe      1.0478740000000000   -0.0353370000000000    2.1646190000000001
Fe      2.0430619999999999   -2.2617609999999999    1.5258920000000000
Fe      2.7406190000000001    1.8123970000000000    2.0883419999999999
Fe      0.5577810000000000   -3.1909420000000002   -0.4777410000000000
Fe      3.2352560000000001   -0.1908550000000000    0.7023430000000001
Fe      0.3291670000000000    2.3381210000000001    2.3434290000000000
Fe     -3.5022730000000002    0.7841380000000000    1.7152769999999999
Fe     -5.0567479999999998   -0.9995020000000000    0.6461190000000000
Fe      2.9616310000000001   -2.0668590000000000   -0.9027060000000000
Fe      1.0431670000000000   -0.8597030000000000   -0.1963170000000000
Fe     -1.9382130000000000    2.6654339999999999    1.9099100000000000
Fe     -0.9958280000000000    0.5766289999999999    0.4868140000000000
Fe     -3.5782630000000002   -2.4400200000000001   -0.9620000000000000
Fe     -1.2124990000000000   -1.3213500000000000   -0.9910930000000000
Fe      1.4205289999999999    1.4086090000000000    0.1809530000000000
Fe     -4.3408150000000001    3.1690730000000000    1.3901530000000000
Fe     -1.4171220000000000   -3.1038999999999999   -2.5142869999999999
Fe     -3.2698320000000001   -0.0695920000000000   -0.6248100000000000
Fe      3.6971300000000000    2.0411779999999999   -0.2546140000000000
Fe     -0.3189280000000000    4.6040700000000001    1.3551930000000001
Fe      1.7706390000000001    3.7185929999999998    0.6175100000000000
Fe      1.0551520000000001   -1.8347039999999999   -2.3946149999999999
Fe     -5.2092630000000000    1.3810220000000000   -0.1239050000000000
Fe      2.7425769999999998    0.3266890000000000   -1.8255490000000001
Fe     -2.8767390000000002    2.2035610000000001   -0.2485630000000000
Fe     -0.5048270000000000    2.7862710000000002   -0.2972760000000000
Fe     -5.3523160000000001   -0.5941840000000000   -1.7413250000000000
Fe      0.4345450000000000    0.7314250000000000   -1.9554950000000000
Fe     -2.4292039999999999    4.5170240000000002    0.2429190000000000
Fe     -3.2360000000000002   -1.0205120000000001   -2.8490060000000001
Fe      1.8804520000000000    2.9300839999999999   -1.6369380000000000
Fe     -1.8400360000000000    1.1386930000000000   -2.1845210000000002
Fe     -0.9020980000000000   -0.8603600000000000   -3.3579289999999999
Fe      0.1711020000000000   -2.6129699999999998   -4.5590630000000001
Fe     -4.6387179999999999    3.6905190000000001   -1.0074870000000000
Fe     -0.0440000000000000    4.9002939999999997   -1.2160860000000000
Fe     -4.1183889999999996    1.5920540000000001   -2.4484859999999999
Fe     -2.2736440000000000   -2.1670940000000001   -4.8097859999999999
Fe      1.4609610000000000   -0.3485950000000000   -4.2028540000000003
Fe     -2.4296009999999999    3.7605919999999999   -2.0302220000000002
Fe     -0.2587380000000000    3.0091790000000000   -2.7245650000000001
Fe      1.8564620000000001    2.0723720000000001   -3.8510089999999999
Fe     -0.4203350000000000    1.2499979999999999   -4.2794200000000000
Fe     -2.7047210000000002    0.4282920000000000   -4.6760050000000000
Fe     -0.5890780000000000   -0.5874860000000000   -5.8356800000000000
Fe      1.3767680000000000    4.6111019999999998   -3.3973000000000000
Fe     -2.3108190000000000    2.8233510000000002   -4.2464719999999998
Fe     -1.0771180000000000    5.0607720000000000   -3.6291240000000000
Fe      1.0479520000000000    1.3035070000000000   -6.1508900000000004
Fe      0.0643760000000000    3.4375830000000001   -5.1839009999999996
Fe     -1.4206620000000001    1.7746940000000000   -6.4069770000000004
H       2.5734140000000001    4.0714389999999998    4.7989490000000004
