   79
 
C      -5.3232660000000003   -1.8291390000000001    2.7699310000000001
C      -4.1132590000000002   -3.8321019999999999    2.1061969999999999
C      -3.9305150000000002   -3.3043610000000001    0.8305730000000000
C      -6.2996460000000001    0.7577050000000000    1.9679700000000000
C      -4.8129379999999999   -3.1085900000000000    3.0954820000000001
C      -5.1532520000000002   -1.3004220000000000    1.4951760000000001
C      -4.4456379999999998   -2.0436030000000001    0.5302010000000000
C      -5.1264880000000002   -5.1481680000000001    6.3317690000000004
C      -5.0608089999999999   -3.6091780000000000    4.4393580000000004
C      -4.7651789999999998   -4.8287079999999998    4.9431539999999998
H      -4.7485710000000001   -0.6399660000000000   -0.7490120000000000
H      -5.5690780000000002   -2.9198680000000001    5.1194319999999998
H      -4.2730730000000001   -5.6084889999999996    4.3643669999999997
H      -5.8574630000000001   -1.2660860000000000    3.5342229999999999
H      -3.6952950000000002   -4.8118489999999996    2.3326140000000000
H      -3.3818929999999998   -3.8488470000000001    0.0618750000000000
H      -6.5646500000000003    1.6574670000000000    1.4039860000000000
H      -7.2143980000000001    0.2615300000000000    2.3266230000000001
H      -5.6530849999999999    1.0308100000000000    2.8155100000000002
O      -5.7397410000000004   -4.4336739999999999    7.1108330000000004
O      -4.6843890000000004   -6.3992209999999998    6.6849059999999998
O      -4.2637330000000002   -1.4977670000000001   -0.7403840000000000
O      -5.5938270000000001   -0.0834150000000000    1.0420840000000000
Fe      2.1785310000000000    1.0570560000000000    3.0308480000000002
Fe      2.0031490000000001   -3.1120670000000001    1.0277799999999999
Fe      3.2374679999999998   -1.1200090000000000    1.9210710000000000
Fe      0.9388069999999999   -1.0407400000000000    1.9620949999999999
Fe      4.5064859999999998    0.9635920000000000    2.1448790000000000
Fe      5.6676830000000002   -1.2596920000000000    1.5626180000000001
Fe      5.8438720000000002    3.0820699999999999    1.5074080000000001
Fe      4.1210389999999997   -2.6211549999999999    0.0246300000000000
Fe      6.4540980000000001    0.8832930000000000    0.4460450000000000
Fe      3.4001450000000002    3.1275339999999998    1.8886769999999999
Fe     -0.1694750000000000    1.1327440000000000    2.2217690000000001
Fe     -1.4916100000000001   -1.0106999999999999    1.6890149999999999
Fe      6.2912640000000000   -1.1974880000000001   -0.8582419999999999
Fe      4.2787319999999998   -0.2113670000000000   -0.0673490000000000
Fe      1.0949420000000001    3.2118540000000002    1.9226529999999999
Fe      2.1428729999999998    1.0319590000000001    0.6567210000000000
Fe     -0.0969960000000000   -2.4687130000000002    0.0936720000000000
Fe      2.0491400000000000   -1.1043390000000000   -0.4661350000000000
Fe      4.3671910000000000    2.1077610000000000   -0.0913390000000000
Fe     -1.3512869999999999    3.3491550000000001    1.6339880000000000
Fe      1.9575250000000000   -3.1084239999999999   -1.6516489999999999
Fe     -0.1028610000000000   -0.0516210000000000    0.0017710000000000
Fe      6.4594730000000000    2.9448930000000000   -0.9044900000000000
Fe      2.3023110000000000    5.1864970000000001    0.9523020000000000
Fe      4.3806859999999999    4.5239409999999998   -0.0432930000000000
Fe      4.1915259999999996   -1.5371250000000001   -2.0900089999999998
Fe     -2.1659449999999998    1.2058070000000001    0.6062600000000000
Fe      5.5675369999999997    0.8907600000000000   -2.0944289999999999
Fe     -0.0085000000000000    2.2641760000000000   -0.0214850000000000
Fe      2.2080099999999998    3.1509540000000000   -0.4983420000000000
Fe     -2.1954560000000001   -0.8689540000000000   -0.7200420000000000
Fe      3.2671190000000001    0.9654560000000000   -1.9285749999999999
Fe      0.1560470000000000    4.6784010000000000    0.0228330000000000
Fe     -0.1624570000000000   -1.3811469999999999   -2.0166940000000002
Fe      4.3773039999999996    3.3934590000000000   -2.1358120000000000
Fe      0.9392670000000000    1.0479419999999999   -1.8879999999999999
Fe      2.0210689999999998   -0.9569860000000000   -2.8883000000000001
Fe      3.1534939999999998   -2.7791480000000002   -3.9541409999999999
Fe     -2.0513859999999999    3.2364750000000000   -0.7626400000000000
Fe      2.2544970000000002    5.1323949999999998   -1.7285759999999999
Fe     -1.3671240000000000    1.1350039999999999   -1.9849209999999999
Fe      0.7217190000000000   -2.6863310000000000   -3.9167049999999999
Fe      4.1563600000000003   -0.3279940000000000   -4.1339319999999997
Fe      0.0095270000000000    3.5513319999999999   -2.0678450000000002
Fe      2.1600959999999998    2.9588390000000002   -2.9193669999999998
Fe      4.2426890000000004    2.1557249999999999   -4.1615029999999997
Fe      2.0677850000000002    0.9892740000000000   -4.1713849999999999
Fe     -0.1047730000000000   -0.1752980000000000   -4.0627899999999997
Fe      1.9791000000000001   -1.0941510000000001   -5.3910950000000000
Fe      3.4204699999999999    4.6729200000000004   -4.0221549999999997
Fe     -0.0180750000000000    2.3005610000000001   -4.0908199999999999
Fe      0.9894020000000000    4.7545849999999996   -3.9850629999999998
Fe      3.3097699999999999    0.9271030000000000   -6.1942890000000004
Fe      2.1251410000000002    3.0501200000000002   -5.4277139999999999
Fe      0.7753910000000001    1.0165340000000000   -6.1561450000000004
H      -4.9738600000000002   -6.5214280000000002    7.6115290000000000
