   79
 
C       2.2771699999999999    3.5249000000000001   -2.3710200000000001
C       0.6314000000000000    5.0316000000000001   -1.3815299999999999
C       1.5635300000000001    5.3980499999999996   -0.4067100000000000
C       4.8042199999999999    2.2475499999999999   -2.0664799999999999
C       0.9890600000000001    4.1546399999999997   -2.4479500000000001
C       3.1889099999999999    3.8840300000000001   -1.3682399999999999
C       2.8435100000000002    4.8417300000000001   -0.3975200000000000
C      -2.2452500000000000    2.6991999999999998   -3.9003299999999999
C       0.0417500000000000    3.5885300000000000   -3.3914399999999998
C      -1.3796400000000000    3.6469000000000000   -3.2118400000000000
H       4.5222100000000003    4.6152400000000000    0.4529700000000000
H       0.4244600000000000    3.1029399999999998   -4.2910500000000003
H      -1.8712400000000000    4.4702999999999999   -2.6883200000000000
H       2.5794899999999998    2.8509500000000001   -3.1720500000000000
H      -0.3568600000000000    5.4909499999999998   -1.3745099999999999
H       1.2923600000000000    6.0899400000000004    0.3909600000000000
H       5.7773899999999996    1.9015899999999999   -1.7008600000000000
H       4.0674900000000003    1.4304300000000001   -1.9849500000000000
H       4.8996000000000004    2.5834400000000000   -3.1117300000000001
O      -1.7335900000000000    1.8465700000000000   -4.7774200000000002
O      -3.4837500000000001    2.6187700000000000   -3.4649299999999998
O       3.7330500000000000    5.1758800000000003    0.5913200000000000
O       4.4419500000000003    3.3422999999999998   -1.2080200000000001
Fe     -0.5216700000000000   -1.5760900000000000    5.0429500000000003
Fe     -0.3498600000000000   -5.7051400000000001    3.0046300000000001
Fe      0.7125200000000000   -3.6172700000000000    3.8947500000000002
Fe     -1.5957900000000000   -3.7550100000000000    3.9705800000000000
Fe      1.7794399999999999   -1.4248499999999999    4.1269600000000004
Fe      3.1320600000000001   -3.5412900000000000    3.4777700000000000
Fe      2.8581099999999999    0.8340100000000000    3.5446000000000000
Fe      1.6720400000000000   -4.9889500000000000    1.9450099999999999
Fe      3.6909500000000000   -1.3065700000000000    2.4251800000000001
Fe      0.4582300000000000    0.6442800000000000    3.9324900000000000
Fe     -2.9100999999999999   -1.7091499999999999    4.2724200000000003
Fe     -4.0454999999999997   -3.9676700000000000    3.7009099999999999
Fe      3.7093400000000001   -3.3467899999999999    1.0573699999999999
Fe      1.6255700000000000   -2.5692499999999998    1.8993700000000000
Fe     -1.8482700000000001    0.4733500000000000    3.9966400000000002
Fe     -0.6032800000000000   -1.5534699999999999    2.6786099999999999
Fe     -2.5050800000000000   -5.2484200000000003    2.0852700000000000
Fe     -0.5162099999999999   -3.6568299999999998    1.5266999999999999
Fe      1.4913500000000000   -0.2578800000000000    1.9289099999999999
Fe     -4.3302500000000004    0.3564800000000000    3.7641200000000001
Fe     -0.4536000000000000   -5.6278899999999998    0.3062100000000000
Fe     -2.7461700000000002   -2.8437899999999998    2.0431200000000000
Fe      3.4886100000000000    0.7481900000000000    1.1331800000000001
Fe     -0.8251600000000000    2.5728499999999999    3.0336699999999999
Fe      1.2832399999999999    2.1616900000000001    1.9817700000000000
Fe      1.6340699999999999   -3.8472900000000001   -0.1497900000000000
Fe     -4.9104700000000001   -1.8238600000000000    2.6710500000000001
Fe      2.7738900000000002   -1.3216500000000000   -0.1201100000000000
Fe     -2.8803200000000002   -0.5211800000000000    2.0684700000000000
Fe     -0.7571600000000001    0.5633600000000000    1.5436600000000000
Fe     -4.7735300000000001   -3.9005299999999998    1.3275699999999999
Fe      0.4690000000000000   -1.4468799999999999    0.0773000000000000
Fe     -2.9477699999999998    1.8884099999999999    2.1898499999999999
Fe     -2.7349600000000001   -4.1146799999999999   -0.0064500000000000
Fe      1.3786099999999999    1.0503499999999999   -0.0855300000000000
Fe     -1.8539200000000000   -1.6002000000000001    0.1450600000000000
Fe     -0.6082800000000000   -3.4649899999999998   -0.8910800000000000
Fe      0.6750400000000000   -5.1266299999999996   -2.0165199999999999
Fe     -5.0165899999999999    0.3246500000000000    1.3925799999999999
Fe     -0.9184900000000000    2.5771899999999999    0.3743900000000000
Fe     -4.1704200000000000   -1.7412099999999999    0.1321500000000000
Fe     -1.7593200000000000   -5.2891300000000001   -1.9364600000000001
Fe      1.4427099999999999   -2.5776400000000002   -2.1508500000000002
Fe     -3.0145100000000000    0.8039800000000000    0.0814100000000000
Fe     -0.8549600000000001    0.4691800000000000   -0.8881599999999999
Fe      1.2335799999999999   -0.1263700000000000   -2.1667900000000002
Fe     -0.7740100000000000   -1.4809600000000001   -2.1344500000000002
Fe     -2.8191799999999998   -2.8708700000000000   -2.0282000000000000
Fe     -0.6742400000000000   -3.5443500000000001   -3.3918900000000001
Fe      0.2678600000000000    2.2833199999999998   -1.8182799999999999
Fe     -2.9931999999999999   -0.4080700000000000   -1.9957499999999999
Fe     -2.3719800000000002    2.0449600000000001   -1.9195300000000000
Fe      0.4242500000000000   -1.4124000000000001   -4.1887999999999996
Fe     -1.0038700000000000    0.5677200000000000   -3.5096699999999998
Fe     -2.1195700000000000   -1.5851800000000000   -4.0967200000000004
H      -4.6175600000000001    2.1193000000000000   -3.1521200000000000
