   79
 
C       0.9089180000000000   -0.2614900000000000    4.4173929999999997
C      -0.8982500000000000   -1.8685849999999999    4.0750219999999997
C      -1.7362789999999999   -1.0819289999999999    4.8937119999999998
C       1.7008099999999999    2.2367409999999999    5.5029170000000001
C       0.4679500000000000   -1.5107940000000000    3.8742630000000000
C       0.0633160000000000    0.5061570000000000    5.2215420000000003
C      -1.2670560000000000    0.0907870000000000    5.4747950000000003
C       2.2829190000000001   -4.3801379999999996    2.1196180000000000
C       1.3582410000000000   -2.1760799999999998    2.8962110000000001
C       1.1716780000000000   -3.5836150000000000    2.5230389999999998
H      -1.5782620000000001    1.6598700000000000    6.4938979999999997
H       2.4202499999999998   -1.8880589999999999    3.0402220000000000
H       0.3367250000000000   -4.1397880000000002    2.9473590000000001
H       1.9423580000000000    0.0387740000000000    4.2537289999999999
H      -1.2761450000000001   -2.8164660000000001    3.6957279999999999
H      -2.7754870000000000   -1.3656600000000001    5.0562199999999997
H       1.7740790000000000    3.1690040000000002    6.0763040000000004
H       2.4830920000000001    1.5382050000000000    5.8412940000000004
H       1.8127300000000000    2.4489770000000002    4.4233380000000002
O       3.4314550000000001   -3.9599899999999999    1.7270049999999999
O       2.1003390000000000   -5.7223050000000004    2.2078660000000001
O      -2.0958830000000002    0.8721630000000000    6.2281880000000003
O       0.3914970000000000    1.7102040000000001    5.7838570000000002
Fe     -0.1954280000000000   -0.5109830000000000    2.2273809999999998
Fe     -0.5462800000000000   -4.1307570000000000   -0.6179170000000000
Fe      0.7635940000000000   -2.4994079999999999    0.7546720000000000
Fe     -1.5628940000000000   -2.2854440000000000    0.6984890000000000
Fe      2.1501359999999998   -0.5488530000000000    1.2973760000000001
Fe      3.2167450000000000   -2.6536200000000001    0.2668350000000000
Fe      3.5330159999999999    1.5357909999999999    1.2732180000000000
Fe      1.5772940000000000   -3.5007790000000001   -1.5185409999999999
Fe      4.1007480000000003   -0.3129450000000000   -0.3329860000000000
Fe      1.0945819999999999    1.6831959999999999    1.5926439999999999
Fe     -2.5550470000000001   -0.1916010000000000    1.4811920000000001
Fe     -3.9948459999999999   -2.0762890000000001    0.4911440000000000
Fe      3.8477579999999998   -2.0061130000000000   -2.0611199999999998
Fe      1.8828110000000000   -1.1598900000000001   -1.0707080000000000
Fe     -1.1866120000000000    1.8375980000000001    1.6802420000000000
Fe     -0.2368590000000000   -0.0238490000000000   -0.0850370000000000
Fe     -2.6262390000000000   -3.1962670000000002   -1.4059159999999999
Fe     -0.4017540000000000   -1.8322200000000000   -1.5932420000000000
Fe      2.0393029999999999    1.1022850000000000   -0.5430080000000000
Fe     -3.6451989999999999    2.1070880000000001    1.4825860000000000
Fe     -0.5675249999999999   -3.4728070000000000   -3.2091379999999998
Fe     -2.5494010000000000   -0.8356749999999999   -0.9518920000000000
Fe      4.1536540000000004    2.0229420000000000   -1.1134510000000000
Fe      0.0962860000000000    3.9671249999999998    1.1503509999999999
Fe      2.1401960000000000    3.4301819999999998    0.1004350000000000
Fe      1.7267100000000000   -1.9445800000000000   -3.3238010000000000
Fe     -4.5560859999999996    0.3348030000000000   -0.0522440000000000
Fe      3.2106580000000000    0.3734870000000000   -2.7713850000000000
Fe     -2.3478530000000002    1.4190179999999999   -0.3983610000000000
Fe     -0.0940010000000000    2.2874620000000001   -0.6877390000000000
Fe     -4.6851360000000000   -1.3888560000000001   -1.8119019999999999
Fe      0.8802940000000000    0.4778870000000000   -2.5815579999999998
Fe     -2.0723530000000001    3.7302759999999999    0.1923190000000000
Fe     -2.6551239999999998   -1.6472920000000000   -3.2086920000000001
Fe      2.1015549999999998    2.8294589999999999   -2.2145350000000001
Fe     -1.4214329999999999    0.6444080000000000   -2.5122499999999999
Fe     -0.4333100000000000   -1.1404080000000001   -3.9362770000000000
Fe      0.6488220000000000   -2.6763479999999999   -5.4111180000000001
Fe     -4.3548980000000004    2.6540759999999999   -0.8635340000000000
Fe      0.0358480000000000    4.4944990000000002   -1.4040390000000000
Fe     -3.7531289999999999    0.8517770000000000   -2.5589249999999999
Fe     -1.7757590000000001   -2.5111180000000002   -5.3484910000000001
Fe      1.7427630000000001   -0.2882180000000000   -5.0129180000000000
Fe     -2.2957980000000000    3.1271930000000001   -2.1055540000000001
Fe     -0.1445690000000000    2.6958470000000001   -3.0725220000000002
Fe      1.9113160000000000    2.1166140000000002   -4.4807100000000002
Fe     -0.3071580000000000    1.0560300000000000   -4.7226939999999997
Fe     -2.5196139999999998    0.0073810000000000   -4.8995300000000004
Fe     -0.4624480000000000   -0.6551439999999999   -6.3964559999999997
Fe      1.1965200000000000    4.5479300000000000   -3.7412920000000001
Fe     -2.3460420000000002    2.4207519999999998   -4.3671680000000004
Fe     -1.2444610000000000    4.7316349999999998   -3.6689390000000000
Fe      0.9318990000000000    1.4394849999999999   -6.7257350000000002
Fe     -0.1737490000000000    3.3539159999999999   -5.4706029999999997
Fe     -1.5798049999999999    1.6148769999999999   -6.6646419999999997
H       2.9276080000000002   -6.1252849999999999    1.8725650000000000
