   79
 
C       2.0314120000000000   -0.0004740000000000   -4.7947949999999997
C       2.4986459999999999    2.3266779999999998   -4.1991250000000004
C       3.8546659999999999    2.0178550000000000   -4.1075720000000002
C       3.0705770000000001   -2.6620180000000002   -4.9271300000000000
C       1.5510940000000000    1.3346709999999999   -4.5486620000000002
C       3.3998059999999999   -0.3002980000000000   -4.6592580000000003
C       4.3154519999999996    0.7135080000000000   -4.3185940000000000
C      -2.0367649999999999    2.4651879999999999   -3.8353869999999999
C       0.0957600000000000    1.4739560000000000   -4.4764130000000000
C      -0.6671319999999999    2.6802030000000001   -4.1835430000000002
H       5.7434000000000003   -0.5325720000000000   -4.3465600000000002
H      -0.4526750000000000    0.7155410000000000   -5.0518720000000004
H      -0.2722880000000000    3.6934279999999999   -4.2362390000000003
H       1.3597740000000000   -0.7268240000000000   -5.2702869999999997
H       2.1662610000000000    3.3427470000000001   -3.9876390000000002
H       4.5842929999999997    2.7825479999999998   -3.8401999999999998
H       3.7157230000000001   -3.5465309999999999   -4.9305919999999999
H       2.3934609999999998   -2.6844560000000000   -4.0543779999999998
H       2.4832280000000000   -2.6349089999999999   -5.8581500000000002
O      -2.7730450000000002    1.4357409999999999   -4.1300829999999999
O      -2.7185940000000000    3.6009129999999998   -3.3126829999999998
O       5.6453119999999997    0.4275320000000000   -4.1873940000000003
O       3.9585159999999999   -1.5353650000000001   -4.8436089999999998
Fe     -1.0048569999999999   -0.2407280000000000    6.0476660000000004
Fe     -0.9413130000000000   -4.3911959999999999    4.0103470000000003
Fe      0.1889790000000000   -2.3885489999999998    5.0257600000000000
Fe     -2.1127950000000002   -2.3546950000000000    4.9064730000000001
Fe      1.3744090000000000   -0.2637590000000000    5.3364969999999996
Fe      2.6481620000000001   -2.4422890000000002    4.8380169999999998
Fe      2.6770149999999999    1.9020310000000000    4.8143989999999999
Fe      1.2279199999999999   -3.8333940000000002    3.1730700000000001
Fe      3.4325459999999999   -0.2968770000000000    3.7883140000000002
Fe      0.2263140000000000    1.8699150000000000    5.0053060000000000
Fe     -3.3048449999999998   -0.2147580000000000    5.0920820000000004
Fe     -4.5367949999999997   -2.3828649999999998    4.4674740000000002
Fe      3.4029850000000001   -2.3855260000000000    2.4581860000000000
Fe      1.3325570000000000   -1.4293739999999999    3.1098659999999998
Fe     -2.0824900000000000    1.8851690000000001    4.8838840000000001
Fe     -0.8823500000000000   -0.2454880000000000    3.6726610000000002
Fe     -3.0011209999999999   -3.8034949999999998    2.9694980000000002
Fe     -0.8438830000000000   -2.3750369999999998    2.5426989999999998
Fe      1.3512029999999999    0.8907090000000000    3.1087639999999999
Fe     -4.5207319999999998    1.9453350000000000    4.4518269999999998
Fe     -0.7966950000000000   -4.3556860000000004    1.3239780000000001
Fe     -3.0383860000000000   -1.3790160000000000    2.8918320000000000
Fe      3.4609679999999998    1.7701020000000001    2.4512250000000000
Fe     -0.8474400000000000    3.8975759999999999    3.9856259999999999
Fe      1.3139310000000000    3.3131499999999998    3.1609490000000000
Fe      1.4015000000000000   -2.7377490000000000    1.0565670000000000
Fe     -5.1853540000000002   -0.2045260000000000    3.3313959999999998
Fe      2.7208299999999999   -0.2880530000000000    1.1845580000000000
Fe     -3.0268079999999999    0.9448210000000000    2.8715730000000002
Fe     -0.8002750000000000    1.8708149999999999    2.5420780000000001
Fe     -5.0728759999999999   -2.2765970000000002    2.0343320000000000
Fe      0.4149380000000000   -0.2669040000000000    1.1896310000000001
Fe     -2.9432800000000001    3.3551060000000001    2.9765250000000001
Fe     -2.9405739999999998   -2.6920299999999999    0.8707940000000000
Fe      1.4611310000000000    2.1865939999999999    1.0849949999999999
Fe     -1.9023699999999999   -0.2296530000000000    1.0763570000000000
Fe     -0.7273630000000000   -2.1855009999999999    0.1160890000000000
Fe      0.5353210000000000   -3.9047600000000000   -0.9423070000000000
Fe     -5.0206860000000004    1.8683970000000001    1.9949889999999999
Fe     -0.7275940000000000    3.8637340000000000    1.3174640000000000
Fe     -4.1984919999999999   -0.2216560000000000    0.8273290000000000
Fe     -1.9226880000000000   -3.9305759999999998   -0.9858900000000000
Fe      1.4683560000000000   -1.5140370000000001   -0.9988530000000000
Fe     -2.8630700000000000    2.2962180000000001    0.8654320000000000
Fe     -0.6700020000000000    1.7032069999999999    0.1145410000000000
Fe      1.5672120000000000    0.9596900000000000   -0.9214329999999999
Fe     -0.6238320000000001   -0.2483070000000000   -1.1410309999999999
Fe     -2.8136310000000000   -1.4797549999999999   -1.1732920000000000
Fe     -0.6637570000000000   -2.2584140000000001   -2.4231829999999999
Fe      0.6076310000000000    3.4663179999999998   -0.8206670000000000
Fe     -2.7734230000000002    0.9783550000000000   -1.0910260000000001
Fe     -1.8472150000000001    3.4013270000000002   -1.1278340000000000
Fe      0.7741390000000000   -0.2617420000000000   -3.0368629999999999
Fe     -0.4497110000000000    1.7954530000000000   -2.3703729999999998
Fe     -2.0031919999999999   -0.1139020000000000   -3.1167579999999999
H      -3.6666710000000000    3.3575569999999999   -3.3522099999999999
