   79
 
C      -3.4113810000000000   -1.3196680000000001   -1.4117020000000000
C      -2.8058950000000000   -3.5341860000000000   -0.4197010000000000
C      -3.6748829999999999   -3.2777590000000001    0.6961980000000000
C      -5.4719550000000003    0.6972940000000000   -1.2603690000000001
C      -2.6755670000000000   -2.5600299999999998   -1.4809650000000001
C      -4.0084869999999997   -0.9478850000000000   -0.1751770000000000
C      -4.0669680000000001   -1.9318329999999999    0.9044870000000000
C      -0.0445210000000000   -4.1614509999999996   -3.7677179999999999
C      -1.8142170000000000   -2.7755839999999998   -2.6312549999999999
C      -0.7118380000000000   -3.7018830000000000   -2.5668400000000000
H      -5.3907740000000004   -0.8474030000000000    1.7805679999999999
H      -2.1753999999999998   -2.4603820000000001   -3.6149510000000000
H      -0.6074990000000000   -4.3521879999999999   -1.6922820000000001
H      -3.5755910000000002   -0.7499890000000000   -2.3262570000000000
H      -2.4895760000000000   -4.5593409999999999   -0.6139410000000000
H      -4.0400419999999997   -4.0630540000000002    1.3608590000000000
H      -6.2701620000000000    1.3837470000000001   -0.9565310000000000
H      -4.6664240000000001    1.2508020000000000   -1.7689760000000001
H      -5.8760529999999997   -0.0954730000000000   -1.9057869999999999
O      -0.2757850000000000   -3.9870440000000000   -4.9499529999999998
O       1.1595970000000000   -4.8646219999999998   -3.3637090000000001
O      -4.8127979999999999   -1.5963270000000001    2.0424110000000000
O      -4.9719629999999997    0.1173960000000000   -0.0236350000000000
Fe      1.4001250000000001    1.3136690000000000    4.7064990000000000
Fe      2.9156870000000001   -2.7516639999999999    2.9913419999999999
Fe      3.2634089999999998   -0.3507720000000000    3.6888709999999998
Fe      1.1275670000000000   -1.2078759999999999    3.8391270000000000
Fe      3.5637940000000001    2.0649929999999999    3.7118929999999999
Fe      5.5726730000000000    0.5487890000000000    3.2262010000000001
Fe      3.9470090000000000    4.4798099999999996    2.8981249999999998
Fe      4.6551819999999999   -1.5090349999999999    1.9033290000000000
Fe      5.3575929999999996    2.6685680000000001    1.9177430000000000
Fe      1.6646019999999999    3.5934780000000002    3.3736910000000000
Fe     -0.7637930000000001    0.3443200000000000    3.9988640000000002
Fe     -1.1211310000000001   -2.1878389999999999    3.6786930000000000
Fe      6.0880270000000003    0.4974070000000000    0.8336970000000000
Fe      3.8179230000000000    0.7330650000000000    1.6083609999999999
Fe     -0.4815720000000000    2.7119970000000002    3.4569489999999998
Fe      1.3498749999999999    1.0662149999999999    2.3361540000000001
Fe      0.7265750000000000   -3.1011500000000001    2.1191979999999999
Fe      2.1131419999999999   -1.0036790000000000    1.3788069999999999
Fe      2.9350450000000001    2.8842620000000001    1.4312110000000000
Fe     -2.7903460000000000    1.7979570000000000    3.3327640000000001
Fe      2.8318580000000000   -2.9837440000000002    0.3498870000000000
Fe     -0.2744700000000000   -0.8977309999999999    1.8655550000000001
Fe      4.4114940000000002    4.5529279999999996    0.4966030000000000
Fe     -0.2260260000000000    4.9268440000000000    2.2835000000000001
Fe      1.9421050000000000    5.0820930000000004    1.3241570000000000
Fe      4.2574170000000002   -0.6568330000000000   -0.2886370000000000
Fe     -2.6587790000000000   -0.6009360000000000    2.5464090000000001
Fe      4.5383589999999998    2.1221169999999998   -0.4730990000000000
Fe     -1.1569300000000000    1.2239020000000000    1.6784090000000000
Fe      0.5215330000000000    2.8924170000000000    1.0204029999999999
Fe     -1.8423259999999999   -2.5775500000000000    1.2555390000000000
Fe      2.3786269999999998    1.2564839999999999   -0.3026540000000000
Fe     -1.9953259999999999    3.5032299999999998    1.5461430000000000
Fe      0.2389330000000000   -2.2879369999999999   -0.0353800000000000
Fe      2.3917999999999999    3.8923169999999998   -0.6964620000000000
Fe      0.2333930000000000    0.3441280000000000   -0.1475740000000000
Fe      2.0570290000000000   -1.1169060000000000   -1.0538510000000001
Fe      3.8660899999999998   -2.3303690000000001   -2.0468389999999999
Fe     -3.4267310000000002    1.3684090000000000    1.0187960000000000
Fe     -0.2443500000000000    4.6059869999999998   -0.3534010000000000
Fe     -1.9894950000000000   -0.4181040000000000   -0.1158640000000000
Fe      1.6329100000000001   -3.2880240000000001   -1.9446310000000000
Fe      3.7236760000000002    0.3215330000000000   -2.4134039999999999
Fe     -1.6470089999999999    2.2428260000000000   -0.4577580000000000
Fe      0.5403070000000000    2.5013740000000002   -1.3775970000000000
Fe      2.7404510000000002    2.5517439999999998   -2.6499039999999998
Fe      1.2665810000000000    0.5532130000000000   -2.4572150000000001
Fe     -0.2126030000000000   -1.5108590000000000   -2.2565629999999999
Fe      2.1473779999999998   -1.3913620000000000   -3.5632999999999999
Fe      0.9996090000000000    4.4709529999999997   -2.6539540000000001
Fe     -1.1397320000000000    0.8796880000000000   -2.3668380000000000
Fe     -1.2937550000000000    3.4958060000000000   -2.5280369999999999
Fe      2.3986090000000000    0.8927910000000000   -4.5447639999999998
Fe      0.4411610000000000    2.3360650000000001   -3.8890189999999998
Fe      0.0625410000000000   -0.1556560000000000   -4.3482099999999999
H       1.6709799999999999   -5.0054770000000000   -4.1863219999999997
