   23
 
C       0.8927360000000000   -0.7039580000000000   -0.0208900000000000
C       0.1374310000000000    1.5881570000000000   -0.0172460000000000
C       1.4602430000000000    2.0270950000000001   -0.0605500000000000
C       3.1323479999999999   -2.4841940000000000   -0.0539990000000000
H       4.3608269999999996    0.7249460000000000   -0.1292260000000000
C      -0.1843480000000000    0.2143320000000000   -0.0060050000000000
C       2.2121540000000000   -0.2653040000000000   -0.0614060000000000
C       2.5087310000000000    1.1091850000000001   -0.0851710000000000
O      -4.2182350000000000   -1.4521090000000001   -0.3154280000000000
O      -4.9282890000000004    0.5417010000000000    0.5459380000000000
O       3.8207239999999998    1.5358520000000000   -0.1238150000000000
C      -4.0811440000000001   -0.2495930000000000    0.0339080000000000
O       3.3392450000000000   -1.0786100000000001   -0.0817790000000000
C      -1.5487530000000000   -0.3065480000000000    0.0090960000000000
C      -2.7009930000000000    0.3837080000000000   -0.1221820000000000
H      -1.6503520000000000   -1.3932300000000000    0.1140650000000000
H      -2.7006709999999998    1.4714259999999999   -0.2569180000000000
H       0.6601420000000000   -1.7693680000000001   -0.0077700000000000
H      -0.6665950000000000    2.3237009999999998    0.0161660000000000
H       1.6990149999999999    3.0920779999999999   -0.0683370000000000
H       4.1305019999999999   -2.9376769999999999   -0.0749370000000000
H       2.6066090000000002   -2.7964899999999999    0.8635720000000000
H       2.5564110000000002   -2.8247789999999999   -0.9304390000000000
