   75
 
O       3.0628549999999999    3.1150650000000000    4.2991190000000001
C       3.1800739999999998    2.9816650000000000    2.9068060000000000
C       2.2953410000000001    3.6936049999999998    2.0078580000000001
C       2.5588129999999998    3.6207289999999999    0.5900270000000000
C       3.7477380000000000    2.9234640000000001    0.1161880000000000
C       4.6567559999999997    2.3109530000000000    1.0409839999999999
C       4.3520159999999999    2.3447269999999998    2.4454289999999999
O       5.2756930000000004    1.8479250000000000    3.3417690000000002
C       1.4767230000000000    3.9856609999999999   -0.2879200000000000
C       1.5044480000000000    3.7092280000000000   -1.7256959999999999
C       0.9196510000000000    4.7691980000000003   -2.6393510000000000
O       0.6612330000000000    5.9214229999999999   -2.2889729999999999
O       0.6597790000000000    4.2378239999999998   -3.8375189999999999
H       2.1049419999999999    3.1775730000000002    4.5004700000000000
H       1.7052790000000000    4.5142020000000000    2.4175819999999999
H       4.0909089999999999    3.1266870000000000   -0.9011920000000000
H       5.6705430000000003    2.0339170000000002    0.7483730000000000
H       4.9232360000000002    2.0365280000000001    4.2355869999999998
H       0.8468260000000000    4.8349830000000003   -0.0000650000000000
H       2.4582359999999999    3.3399920000000001   -2.1312120000000001
Fe     -1.0160520000000000   -1.4505910000000000    3.9050699999999998
Fe     -0.8574550000000000   -5.4952649999999998    1.6493220000000000
Fe      0.2048490000000000   -3.4655879999999999    2.7144599999999999
Fe     -2.0956910000000000   -3.5661719999999999    2.6975620000000000
Fe      1.3025530000000001   -1.2992379999999999    3.0692159999999999
Fe      2.6537660000000001   -3.3767410000000000    2.4481449999999998
Fe      2.5333690000000000    0.9020660000000000    2.6301470000000000
Fe      1.2403940000000000   -4.7788880000000002    0.7781510000000000
Fe      3.2959719999999999   -1.1873170000000000    1.4661519999999999
Fe      0.0636450000000000    0.7838810000000000    2.8851429999999998
Fe     -3.3834209999999998   -1.5020680000000000    3.0492340000000002
Fe     -4.5564489999999997   -3.7049569999999998    2.3447930000000001
Fe      3.2970250000000001   -3.2357499999999999    0.0437380000000000
Fe      1.2044580000000000   -2.3573930000000001    0.8087259999999999
Fe     -2.2505649999999999    0.6650640000000000    2.9082119999999998
Fe     -1.0192619999999999   -1.3247420000000001    1.5378019999999999
Fe     -3.0129049999999999   -4.9640120000000003    0.7337810000000000
Fe     -0.9407140000000001   -3.3977300000000001    0.3086060000000000
Fe      1.1530229999999999   -0.0267950000000000    0.9006450000000000
Fe     -4.7141419999999998    0.6195420000000000    2.5699459999999998
Fe     -0.8441040000000000   -5.3173450000000004   -0.9877590000000001
Fe     -3.1762269999999999   -2.5481880000000001    0.7861480000000000
Fe      3.2542360000000001    0.9209210000000000    0.2845750000000000
Fe     -1.1952670000000001    2.7847189999999999    2.1352950000000002
Fe      0.8746760000000000    2.4544459999999999    1.0883790000000000
Fe      1.2582720000000001   -3.5608369999999998   -1.2748390000000001
Fe     -5.3431610000000003   -1.5186160000000000    1.3669659999999999
Fe      2.5037060000000002   -1.1024010000000000   -1.0709200000000001
Fe     -3.2531439999999998   -0.2294710000000000    0.8949980000000000
Fe     -1.0892690000000000    0.8595150000000000    0.5223490000000000
Fe     -5.1975619999999996   -3.5717150000000002   -0.0378870000000000
Fe      0.1690630000000000   -1.1224870000000000   -1.0211760000000001
Fe     -3.2663310000000001    2.1792680000000000    1.0575429999999999
Fe     -3.1117430000000001   -3.7519650000000002   -1.3112320000000000
Fe      1.1127400000000001    1.4133570000000000   -1.0568700000000000
Fe     -2.1541199999999998   -1.2597339999999999   -1.0067740000000001
Fe     -0.9391270000000000   -3.1014409999999999   -2.1016670000000000
Fe      0.3723390000000000   -4.7583989999999998   -3.2160169999999999
Fe     -5.3599860000000001    0.6524190000000000    0.1813720000000000
Fe     -1.3558470000000000    2.8710429999999998   -0.5597650000000000
Fe     -4.4893080000000003   -1.3707710000000000   -1.1372169999999999
Fe     -2.0751430000000002   -4.8649329999999997   -3.2583139999999999
Fe      1.1606460000000001   -2.2329919999999999   -3.2693360000000000
Fe     -3.3347690000000001    1.1192160000000000   -1.0865210000000001
Fe     -1.0977470000000000    0.8506290000000000   -1.8962580000000000
Fe      1.0494749999999999    0.2294290000000000   -3.1404570000000001
Fe     -1.0250210000000000   -1.0734580000000000   -3.2427459999999999
Fe     -3.0863130000000001   -2.4385080000000001   -3.2947220000000002
Fe     -0.9153140000000000   -3.0929630000000001   -4.6001770000000004
Fe      0.0935180000000000    2.6143299999999998   -3.0114420000000002
Fe     -3.1933940000000001    0.0416070000000000   -3.1738700000000000
Fe     -2.3888419999999999    2.5752510000000002   -2.8890620000000000
Fe      0.2318830000000000   -0.9465280000000000   -5.2628729999999999
Fe     -1.1425289999999999    1.0159860000000001   -4.4217670000000000
Fe     -2.2997730000000001   -1.0820449999999999   -5.2750719999999998
