   75
 
O       1.4376830000000000    2.0286070000000000    6.5916969999999999
C       1.5524620000000000    2.6341470000000000    5.3474940000000002
C       2.6425749999999999    2.4862700000000002    4.5071380000000003
C       2.6829879999999999    3.1345779999999999    3.2398910000000001
C       1.5670430000000000    3.9480309999999998    2.8925109999999998
C       0.4698540000000000    4.0830590000000004    3.7494420000000002
C       0.4465210000000000    3.4257430000000002    4.9767020000000004
O      -0.6320680000000000    3.5477159999999999    5.8119610000000002
C       3.7950279999999998    2.8774190000000002    2.3357589999999999
C       3.8221319999999999    3.2292169999999998    0.9648280000000000
C       5.0328450000000000    2.8781479999999999    0.1216430000000000
O       6.1743690000000004    2.9255520000000002    0.5756120000000000
O       4.7356259999999999    2.5081349999999998   -1.1255679999999999
H       2.2414930000000002    1.5099769999999999    6.7649299999999997
H       3.4765470000000001    1.8429869999999999    4.8008439999999997
H       1.5757810000000001    4.5134150000000002    1.9597039999999999
H      -0.3866000000000000    4.6950870000000000    3.4635870000000000
H      -0.4368670000000000    3.0141399999999998    6.6061909999999999
H       4.6601549999999996    2.3417150000000002    2.7311589999999999
H       3.2037339999999999    4.0362999999999998    0.5576520000000000
Fe     -0.9011590000000000   -0.6541840000000000    2.9621409999999999
Fe     -0.5063440000000000   -5.0100389999999999    1.3405600000000000
Fe      0.4414130000000000   -2.7959179999999999    2.0799680000000000
Fe     -1.8570240000000000   -2.9976940000000001    2.0922239999999999
Fe      1.4203619999999999   -0.5507360000000000    2.1103839999999998
Fe      2.8878789999999999   -2.6010900000000001    1.7668980000000001
Fe      2.5240909999999999    1.5850450000000000    1.3676429999999999
Fe      1.5694600000000001   -4.3309759999999997    0.3678560000000000
Fe      3.4382850000000000   -0.5303320000000000    0.4587630000000000
Fe      0.0685440000000000    1.4479709999999999    1.6569769999999999
Fe     -3.2120760000000002   -0.9692670000000000    2.1169099999999998
Fe     -4.2966600000000001   -3.3031079999999999    1.7560279999999999
Fe      3.5272869999999998   -2.7566229999999998   -0.6452000000000000
Fe      1.4106749999999999   -1.9308360000000000    0.0209540000000000
Fe     -2.2270479999999999    1.2201510000000000    1.6160520000000000
Fe     -0.8774050000000000   -0.9203410000000000    0.6071839999999999
Fe     -2.6703980000000000   -4.7233010000000002    0.3553120000000000
Fe     -0.6831010000000000   -3.1546829999999999   -0.3025000000000000
Fe      1.2225470000000001    0.3713710000000000   -0.2177150000000000
Fe     -4.6623359999999998    0.9971989999999999    1.3013220000000001
Fe     -0.4982140000000000   -5.2615879999999997   -1.2901990000000001
Fe     -2.9574050000000001   -2.3521999999999998    0.0273820000000000
Fe      3.2185290000000002    1.3853470000000001   -1.1318379999999999
Fe     -1.2753170000000000    3.2254350000000001    0.4421800000000000
Fe      0.8518080000000000    2.7334070000000001   -0.4542030000000000
Fe      1.5126690000000000   -3.4649960000000002   -1.8489120000000001
Fe     -5.1733330000000004   -1.3472260000000000    0.4638390000000000
Fe      2.5947149999999999   -0.8960150000000000   -2.0852469999999999
Fe     -3.1604329999999998   -0.0512070000000000   -0.2263010000000000
Fe     -1.0640470000000000    1.0557300000000001   -0.7610660000000000
Fe     -4.9418819999999997   -3.5530659999999998   -0.6310960000000000
Fe      0.2944520000000000   -1.0814020000000000   -1.9513990000000001
Fe     -3.3190160000000000    2.3586700000000000   -0.4202030000000000
Fe     -2.8342070000000001   -3.8615870000000001   -1.8548860000000000
Fe      1.0923220000000000    1.4113450000000001   -2.3971339999999999
Fe     -2.0238049999999999   -1.2993840000000001   -1.9477670000000000
Fe     -0.6960010000000000   -3.2456800000000001   -2.7235600000000000
Fe      0.6886420000000000   -4.9885760000000001   -3.6037129999999999
Fe     -5.2853380000000003    0.5808640000000000   -1.0707700000000000
Fe     -1.2418910000000001    2.9020299999999999   -2.1832820000000002
Fe     -4.3174239999999999   -1.5528169999999999   -2.0751390000000001
Fe     -1.7316130000000001   -5.2346539999999999   -3.5899760000000001
Fe      1.3701770000000000   -2.4769610000000002   -4.0131530000000000
Fe     -3.2629700000000001    1.0293779999999999   -2.3900839999999999
Fe     -1.0415970000000001    0.6323340000000000   -3.1569609999999999
Fe      1.1650920000000000   -0.0189540000000000   -4.2866999999999997
Fe     -0.8564400000000000   -1.4435480000000001   -4.1990559999999997
Fe     -2.8707850000000001   -2.8685760000000000   -4.0104680000000004
Fe     -0.6738990000000000   -3.6349089999999999   -5.2022139999999997
Fe      0.0074610000000000    2.3774920000000002   -4.3983049999999997
Fe     -3.0918389999999998   -0.4036030000000000   -4.2705339999999996
Fe     -2.4112100000000001    2.1520069999999998   -4.4091310000000004
Fe      0.4075960000000000   -1.5555559999999999   -6.1934220000000000
Fe     -1.0330710000000001    0.4712140000000000   -5.6545839999999998
Fe     -2.1200180000000000   -1.7755970000000001   -6.1870360000000000
