   75
 
O      -3.6007500000000001   -1.0168539999999999   -3.5318049999999999
C      -4.2155810000000002   -0.5146800000000000   -2.4074040000000001
C      -4.0408600000000003    0.8009230000000001   -1.9534810000000000
C      -4.7174540000000000    1.2740089999999999   -0.7801550000000000
C      -5.5786259999999999    0.3519170000000000   -0.1188740000000000
C      -5.7767720000000002   -0.9442390000000001   -0.5980850000000000
C      -5.0799360000000000   -1.3936489999999999   -1.7236750000000001
O      -5.2307870000000003   -2.6732849999999999   -2.1752600000000002
C      -4.2899370000000001    2.5534100000000000   -0.1919150000000000
C      -4.3139690000000002    2.6734469999999999    1.2266690000000000
C      -3.3683890000000001    3.4380250000000001    2.0480499999999999
O      -2.5421510000000000    4.3057319999999999    1.5352779999999999
O      -3.3604750000000001    3.1388210000000001    3.3323360000000002
H      -2.6067330000000002   -0.8209520000000000   -3.4499730000000000
H      -3.4378660000000001    1.4904800000000000   -2.5457139999999998
H      -6.1251980000000001    0.6705340000000000    0.7678199999999999
H      -6.4368090000000002   -1.6360319999999999   -0.0745410000000000
H      -4.5857070000000002   -2.7537349999999998   -2.9132600000000002
H      -3.8252619999999999    3.3118360000000000   -0.8242300000000000
H      -5.0302160000000002    2.1055640000000002    1.8206240000000000
Fe      1.5836490000000001   -0.2352410000000000    4.4265710000000000
Fe      2.0086170000000001   -4.3829890000000002    2.3721770000000002
Fe      2.9624250000000001   -2.2433369999999999    3.3454730000000001
Fe      0.6690870000000000   -2.4461080000000002    3.3160419999999999
Fe      3.9096359999999999    0.0038560000000000    3.5812719999999998
Fe      5.4036220000000004   -2.0280749999999999    3.0246490000000001
Fe      4.9415339999999999    2.2912349999999999    2.9739610000000001
Fe      4.0772860000000000   -3.5936240000000002    1.4587460000000001
Fe      5.8980800000000002    0.1787690000000000    1.9271220000000000
Fe      2.5192290000000002    1.9960929999999999    3.2983820000000001
Fe     -0.7551870000000001   -0.4390760000000000    3.5488420000000001
Fe     -1.7615419999999999   -2.7175419999999999    3.0223170000000001
Fe      6.0749820000000003   -1.9354720000000001    0.6400230000000000
Fe      3.9094410000000002   -1.1937720000000001    1.3675010000000001
Fe      0.2204820000000000    1.7929770000000000    3.2672059999999998
Fe      1.5872109999999999   -0.2436270000000000    2.0515270000000001
Fe     -0.1556070000000000   -4.0127230000000003    1.4537050000000000
Fe      1.8143849999999999   -2.3560780000000001    0.9317930000000000
Fe      3.6543850000000000    1.1208419999999999    1.3512130000000000
Fe     -2.2232750000000001    1.5913580000000001    3.0206830000000000
Fe      2.0065689999999998   -4.3542370000000004   -0.2431180000000000
Fe     -0.4717540000000000   -1.5993710000000001    1.3423419999999999
Fe      5.6423769999999998    2.2124020000000000    0.5914790000000000
Fe      1.1924370000000000    3.8945219999999998    2.3572639999999998
Fe      3.3343159999999998    3.5242550000000001    1.3733029999999999
Fe      4.0583130000000001   -2.5112510000000001   -0.6624060000000001
Fe     -2.7217359999999999   -0.6807160000000000    1.9182969999999999
Fe      5.0842190000000000    0.0490710000000000   -0.6123100000000000
Fe     -0.7472050000000000    0.7049380000000000    1.3256740000000000
Fe      1.3568849999999999    1.8670679999999999    0.9054240000000000
Fe     -2.4153050000000000   -2.7706719999999998    0.6238220000000000
Fe      2.7641260000000001   -0.1524600000000000   -0.4869570000000000
Fe     -0.9003310000000000    3.2401800000000001    1.3390210000000000
Fe     -0.3277240000000000   -2.9408919999999998   -0.6548200000000000
Fe      3.5667070000000001    2.3883489999999998   -0.7009990000000000
Fe      0.4618850000000000   -0.3679070000000000   -0.5206590000000000
Fe      1.8129800000000000   -2.2267769999999998   -1.4851060000000000
Fe      3.1746500000000002   -3.8791840000000000   -2.5288990000000000
Fe     -2.9089510000000001    1.2531369999999999    0.4829160000000000
Fe      1.2065360000000001    3.8355540000000001   -0.3104260000000000
Fe     -1.8517830000000000   -0.6732890000000000   -0.6778160000000000
Fe      0.7527220000000000   -4.0907960000000001   -2.5494050000000001
Fe      3.8826700000000001   -1.3155360000000000   -2.6978700000000000
Fe     -0.8112930000000000    1.9675260000000001   -0.6881070000000000
Fe      1.4293670000000001    1.6862910000000000   -1.5094939999999999
Fe      3.6352340000000001    1.1514120000000001   -2.7108289999999999
Fe      1.6701410000000001   -0.2839340000000000   -2.7630930000000000
Fe     -0.3479760000000000   -1.7012400000000001   -2.7054900000000002
Fe      1.8230260000000000   -2.3747739999999999   -3.9971169999999998
Fe      2.4276059999999999    3.5265800000000000   -2.6107320000000001
Fe     -0.5728220000000001    0.7206360000000001   -2.7342939999999998
Fe      0.0137860000000000    3.2699549999999999   -2.6260970000000001
Fe      2.8414130000000002   -0.1922190000000000   -4.7875990000000002
Fe      1.4164099999999999    1.7597050000000001   -4.0349120000000003
Fe      0.3475420000000000   -0.4450640000000000   -4.7825970000000000
