   73
 
C       1.5194600000000000    4.6578410000000003    2.7896109999999998
C       1.7563990000000000    4.2643779999999998    1.3474210000000000
C       0.6305360000000000    4.4849819999999996    0.4489820000000000
C       0.6075870000000000    4.3895229999999996   -0.9788500000000000
C      -0.7033080000000000    4.4389409999999998   -1.6239380000000001
C      -0.8306740000000000    4.2951600000000001   -3.0530020000000002
C       0.3331790000000000    3.9262730000000001   -3.8175370000000002
C       1.6462070000000000    3.9797229999999999   -3.2226360000000001
C       1.7704489999999999    4.0705819999999999   -1.8028059999999999
H       2.7641260000000001    4.4985600000000003    0.9781120000000000
H      -0.2550770000000000    4.9393510000000003    0.9052150000000000
H      -1.5310619999999999    4.8858009999999998   -1.0720580000000000
H      -1.7399420000000001    4.6307950000000000   -3.5607280000000001
H       0.2534240000000000    3.8951180000000001   -4.9050570000000002
H       2.5319769999999999    3.9971420000000002   -3.8624700000000001
H       2.7601770000000001    4.1772760000000000   -1.3584179999999999
O       0.3047510000000000    4.3349380000000002    3.2562980000000001
O       2.3842070000000000    5.2276999999999996    3.4556610000000001
Fe     -0.5702530000000000   -1.4466239999999999    4.4646109999999997
Fe     -0.4587640000000000   -5.5897009999999998    2.4301149999999998
Fe      0.6696600000000000   -3.5470640000000002    3.4600270000000002
Fe     -1.6476200000000001   -3.5383350000000000    3.2899300000000000
Fe      1.8339240000000001   -1.4195869999999999    3.7870450000000000
Fe      3.1786629999999998   -3.5531739999999998    3.2959459999999998
Fe      3.1570630000000000    0.7160200000000000    3.3219539999999999
Fe      1.7322310000000001   -5.0117370000000001    1.6854420000000001
Fe      3.9275959999999999   -1.4232469999999999    2.2522289999999998
Fe      0.6885720000000000    0.7023830000000000    3.4441160000000002
Fe     -2.8536139999999999   -1.3965760000000000    3.4283169999999998
Fe     -4.0750590000000004   -3.5672039999999998    2.7806449999999998
Fe      3.9232629999999999   -3.6058479999999999    0.9643730000000000
Fe      1.8312360000000001   -2.5923940000000001    1.5817270000000001
Fe     -1.6258310000000000    0.6879820000000000    3.2508290000000000
Fe     -0.3941920000000000   -1.4241560000000000    2.1073800000000000
Fe     -2.4842830000000000   -5.0030780000000004    1.3420360000000000
Fe     -0.3270190000000000   -3.5573380000000001    0.9818940000000000
Fe      1.8617130000000000   -0.2565110000000000    1.5678540000000001
Fe     -4.0515990000000004    0.7570810000000000    2.7456719999999999
Fe     -0.2610830000000000   -5.5470370000000004   -0.1973150000000000
Fe     -2.5514320000000001   -2.5813350000000002    1.2495000000000001
Fe      3.9567700000000001    0.7699650000000000    1.0031140000000001
Fe     -0.3546180000000000    2.7180119999999999    2.5190549999999998
Fe      1.8173500000000000    2.1906819999999998    1.5990899999999999
Fe      1.9469280000000000   -3.9388589999999999   -0.4311030000000000
Fe     -4.6911199999999997   -1.3941180000000000    1.6273130000000000
Fe      3.2856820000000000   -1.4714840000000000   -0.2508860000000000
Fe     -2.5157639999999999   -0.2492910000000000    1.2115279999999999
Fe     -0.2880420000000000    0.6785830000000000    0.9787700000000000
Fe     -4.5578930000000000   -3.5308530000000000    0.3711820000000000
Fe      0.9579070000000000   -1.4489460000000001   -0.3634330000000000
Fe     -2.4150939999999999    2.1633249999999999    1.3072159999999999
Fe     -2.4135430000000002   -3.9020790000000001   -0.7695520000000000
Fe      2.0537239999999999    0.9471480000000000   -0.4721560000000000
Fe     -1.3563769999999999   -1.4474199999999999   -0.5190260000000000
Fe     -0.1632510000000000   -3.4002159999999999   -1.4238050000000000
Fe      1.1367570000000000   -5.1587370000000004   -2.3941720000000002
Fe     -4.5218400000000001    0.7042920000000000    0.3282130000000000
Fe     -0.2397550000000000    2.6320450000000002   -0.2219500000000000
Fe     -3.6641590000000002   -1.4391680000000000   -0.8210690000000000
Fe     -1.2969059999999999   -5.1710079999999996   -2.5590250000000001
Fe      2.0458449999999999   -2.7171720000000001   -2.4837419999999999
Fe     -2.3716750000000002    1.0519339999999999   -0.7826350000000000
Fe     -0.1076430000000000    0.5425600000000000   -1.4314880000000001
Fe      2.1090870000000002   -0.2681680000000000   -2.5296150000000002
Fe     -0.0514630000000000   -1.4389240000000001   -2.6557510000000000
Fe     -2.1946010000000000   -2.6707160000000001   -2.7807640000000000
Fe     -0.0065510000000000   -3.5129820000000000   -3.9190410000000000
Fe      1.3025469999999999    2.0950959999999998   -2.5952860000000002
Fe     -2.1653579999999999   -0.1977590000000000   -2.7712819999999998
Fe     -1.0804680000000000    2.3447580000000001   -2.5854680000000001
Fe      1.3279719999999999   -1.4678460000000000   -4.6000420000000002
Fe      0.0336990000000000    0.5464780000000000   -3.9836469999999999
Fe     -1.2237359999999999   -1.4557340000000001   -4.7586700000000004
