   73
 
C      -0.4071770000000000   -5.5122629999999999    1.4361870000000001
C       0.4315840000000000   -4.3775909999999998    1.9865070000000000
C       1.8357230000000000   -4.2165309999999998    1.7866649999999999
C       2.6357830000000000   -3.3172320000000002    2.6117370000000002
C       3.9591090000000002   -2.9437910000000000    2.1868409999999998
C       4.6763190000000003   -1.8958280000000001    2.8153139999999999
C       4.0824309999999997   -1.1552670000000000    3.8697979999999998
C       2.7925550000000001   -1.5254669999999999    4.3364490000000000
C       2.0820759999999998   -2.5945950000000000    3.7282600000000001
H       0.0123740000000000   -4.0359369999999997    2.9433829999999999
H       2.3573439999999999   -4.8921609999999998    1.1023259999999999
H       4.4022269999999999   -3.4749539999999999    1.3406130000000001
H       5.6629470000000000   -1.6201740000000000    2.4405500000000000
H       4.5992670000000002   -0.3016180000000000    4.3065140000000000
H       2.3218290000000001   -0.9635640000000000    5.1437260000000000
H       1.0892010000000001   -2.8455020000000002    4.1070760000000002
O      -1.6403980000000000   -5.0769640000000003    1.1892910000000001
O      -0.0017170000000000   -6.6589200000000002    1.2603530000000001
Fe     -1.0361240000000000    1.0308160000000000    3.2960419999999999
Fe     -1.3008750000000000   -3.1671570000000000    1.0971489999999999
Fe      0.0420050000000000   -1.0690210000000000    2.2953749999999999
Fe     -2.2569290000000000   -1.0631580000000000    2.0667439999999999
Fe      1.4060640000000000    0.9491290000000000    2.6140010000000000
Fe      2.6980689999999998   -1.2080640000000000    2.2288009999999998
Fe      2.7629039999999998    3.0154090000000000    2.1510880000000001
Fe      1.0089100000000000   -2.6761740000000001    0.6927290000000000
Fe      3.4852360000000000    0.8468000000000000    1.1087450000000001
Fe      0.2964980000000000    3.1044239999999999    2.2645019999999998
Fe     -3.2996200000000000    1.1408110000000000    2.2471749999999999
Fe     -4.6657880000000000   -0.9082130000000000    1.5592010000000001
Fe      3.3717950000000001   -1.2105310000000000   -0.2278990000000000
Fe      1.3317450000000000   -0.2640920000000000    0.4195910000000000
Fe     -1.9837540000000000    3.2259329999999999    2.1241409999999998
Fe     -0.8494860000000000    1.0290040000000000    0.9351699999999999
Fe     -3.2943370000000001   -2.4059710000000001    0.0511040000000000
Fe     -0.9292589999999999   -1.0793200000000001   -0.2014150000000000
Fe      1.4426669999999999    2.0684350000000000    0.3869020000000000
Fe     -4.3815650000000002    3.4232360000000002    1.6011869999999999
Fe     -1.0690260000000000   -3.0701290000000001   -1.4291259999999999
Fe     -3.0633349999999999    0.0147470000000000    0.0481500000000000
Fe      3.5904330000000000    2.9053260000000001   -0.2188200000000000
Fe     -0.6575720000000000    5.2075199999999997    1.2644690000000001
Fe      1.4705260000000000    4.4809999999999999    0.4733390000000000
Fe      1.3137829999999999   -1.6267370000000001   -1.5221579999999999
Fe     -5.1591950000000004    1.3053319999999999    0.4514160000000000
Fe      2.8038669999999999    0.8432160000000000   -1.4927690000000000
Fe     -2.9367960000000002    2.3330660000000001    0.0707180000000000
Fe     -0.6727280000000000    3.1568209999999999   -0.1939360000000000
Fe     -5.1685549999999996   -0.7205490000000000   -0.8874090000000000
Fe      0.4667760000000000    0.9550650000000001   -1.5191490000000001
Fe     -2.7202760000000001    4.7302309999999999    0.1548650000000000
Fe     -3.0545629999999999   -1.2585260000000000   -1.9997199999999999
Fe      1.6569499999999999    3.3624450000000001   -1.6338729999999999
Fe     -1.8462490000000000    1.1235290000000000   -1.7219519999999999
Fe     -0.7454070000000000   -0.9412250000000000   -2.5967099999999999
Fe      0.4586190000000000   -2.7515830000000001   -3.5610330000000001
Fe     -4.8945299999999996    3.3878390000000000   -0.8445240000000001
Fe     -0.4494120000000000    5.1467850000000004   -1.3876539999999999
Fe     -4.1483100000000004    1.2947430000000000   -2.0102869999999999
Fe     -1.9994940000000001   -2.5872199999999999   -3.8004790000000002
Fe      1.5249680000000001   -0.3599610000000000   -3.5665900000000001
Fe     -2.7201640000000000    3.6431450000000001   -1.9738450000000001
Fe     -0.4922240000000000    3.0115170000000000   -2.6023890000000001
Fe      1.6838020000000000    2.1088010000000001   -3.6515770000000001
Fe     -0.5077620000000000    1.0298080000000001   -3.8553160000000002
Fe     -2.6966230000000002   -0.0645400000000000   -4.0118080000000003
Fe     -0.5272829999999999   -1.0501849999999999   -5.0939990000000002
Fe      0.9108280000000000    4.6633370000000003   -3.5873070000000000
Fe     -2.5596749999999999    2.4114819999999999   -3.9981870000000002
Fe     -1.5208830000000000    4.8398680000000001   -3.7791899999999998
Fe      0.8947830000000000    0.9144170000000000   -5.7519179999999999
Fe     -0.2918960000000000    3.0873320000000000   -5.0936630000000003
Fe     -1.6130070000000001    1.0993510000000000   -5.9794859999999996
