   86
 
C      -3.2701690000000001    3.5234150000000000    0.6011570000000001
C      -3.4548980000000000    5.3833070000000003    3.7403430000000002
C      -3.0999379999999999    3.8429110000000000    5.6187730000000000
C      -2.8611019999999998    3.6006089999999999   -1.8717539999999999
C      -4.8908630000000004    4.6143099999999997   -1.0188100000000000
C      -3.2550740000000000    3.9086300000000000   -3.1763629999999998
C      -5.2759010000000002    4.9327090000000000   -2.3236430000000001
C      -4.4615669999999996    4.5778330000000000   -3.4051260000000001
C      -3.0610599999999999    2.7670970000000001    4.7374739999999997
C      -3.3060570000000000    5.1335990000000002    5.1137379999999997
C      -3.6799240000000002    3.9460929999999999   -0.7865320000000000
C      -3.9555760000000002    2.2371710000000000    1.0663929999999999
C      -3.4278559999999998    1.8837349999999999    2.4306100000000002
C      -3.2514040000000000    2.9719210000000000    3.3307650000000000
C      -3.4227820000000002    4.3115490000000003    2.8612649999999999
H      -2.9540989999999998    0.8972090000000000    4.4811290000000001
H      -3.2264599999999999    5.9257559999999998    6.8554979999999999
H      -3.5802010000000002    6.3989370000000001    3.3718830000000000
H      -5.0484669999999996    2.3868920000000000    1.1001080000000001
H      -3.7544480000000000    1.4160580000000000    0.3575400000000000
H      -2.9888479999999999    3.6582330000000001    6.6873880000000003
H      -2.1723629999999998    3.3613710000000001    0.6214190000000001
H      -1.9116599999999999    3.0834039999999998   -1.6975830000000001
H      -5.5225130000000000    4.8989330000000004   -0.1757930000000000
H      -2.6113149999999998    3.6323500000000002   -4.0134280000000002
H      -6.2146290000000004    5.4614409999999998   -2.4973209999999999
H      -4.7648650000000004    4.8293499999999998   -4.4227650000000001
O      -3.2742339999999999    0.6427990000000000    2.8031779999999999
O      -2.8914810000000002    1.5304869999999999    5.2457019999999996
O      -3.3577759999999999    6.2223550000000003    5.9362440000000003
O      -3.5743320000000001    4.5977850000000000    1.5356630000000000
Fe      1.9644790000000001   -2.1394609999999998    3.4174680000000000
Fe      2.1031230000000001   -6.2796799999999999    1.3544110000000000
Fe      3.1948949999999998   -4.2338399999999998    2.3195009999999998
Fe      0.8926600000000000   -4.2841769999999997    2.2765689999999998
Fe      4.3163479999999996   -2.0841249999999998    2.6133069999999998
Fe      5.6427709999999998   -4.2215319999999998    2.0389149999999998
Fe      5.5198939999999999    0.1254330000000000    2.0673110000000001
Fe      4.2231150000000000   -5.6486570000000000    0.4294860000000000
Fe      6.3227440000000001   -2.0354869999999998    0.9930180000000000
Fe      3.0718939999999999    0.0198020000000000    2.3418209999999999
Fe     -0.3582830000000000   -2.1862529999999998    2.5118119999999999
Fe     -1.5451850000000000   -4.3773879999999998    1.9037100000000000
Fe      6.3412699999999997   -4.1004050000000003   -0.3606850000000000
Fe      4.2452350000000001   -3.2356210000000001    0.3769760000000000
Fe      0.7596000000000001   -0.0272760000000000    2.3087330000000001
Fe      2.0102769999999999   -2.1255880000000000    1.0433850000000000
Fe     -0.0080650000000000   -5.7444559999999996    0.3658000000000000
Fe      2.0864140000000000   -4.2498829999999996   -0.1032150000000000
Fe      4.1835529999999999   -0.9156760000000000    0.3942270000000000
Fe     -1.7228800000000000   -0.0803950000000000    1.9062840000000001
Fe      2.1546270000000001   -6.2347330000000003   -1.3224810000000000
Fe     -0.1303630000000000   -3.3261340000000001    0.2921880000000000
Fe      6.2381419999999999    0.0348350000000000   -0.3256430000000000
Fe      1.9029870000000000    2.0228690000000000    1.3997409999999999
Fe      4.0532990000000000    1.5006010000000001    0.4721910000000000
Fe      4.3048700000000002   -4.5304739999999999   -1.6662060000000001
Fe     -2.3078240000000001   -2.2485240000000002    0.7829910000000000
Fe      5.5325709999999999   -2.0401820000000002   -1.5856180000000000
Fe     -0.2030910000000000   -1.0060600000000000    0.3087730000000000
Fe      1.9834570000000000    0.0107500000000000   -0.0811970000000000
Fe     -2.1460230000000000   -4.3070550000000001   -0.5267280000000000
Fe      3.2288589999999999   -2.0858650000000001   -1.4971420000000000
Fe     -0.1640370000000000    1.4017070000000000    0.3879480000000000
Fe     -0.0478710000000000   -4.6294750000000002   -1.7438959999999999
Fe      4.1902210000000002    0.4056500000000000   -1.6345449999999999
Fe      0.9027950000000000   -2.1362000000000001   -1.5466759999999999
Fe      2.1302919999999999   -4.0682929999999997   -2.5247220000000001
Fe      3.3969900000000002   -5.8060099999999997   -3.5800559999999999
Fe     -2.2440880000000001   -0.2104470000000000   -0.5979080000000000
Fe      1.9427150000000000    2.0130930000000000   -1.2773730000000001
Fe     -1.3897619999999999   -2.2174209999999999   -1.7485379999999999
Fe      0.9634910000000000   -5.8505250000000002   -3.6250879999999999
Fe      4.2645939999999998   -3.2970100000000002   -3.6970610000000002
Fe     -0.1515980000000000    0.3176070000000000   -1.7187980000000000
Fe      2.0412919999999999   -0.1477050000000000   -2.5092379999999999
Fe      4.2057719999999996   -0.8124460000000000   -3.6778499999999998
Fe      2.1099450000000002   -2.1019820000000000   -3.7848860000000002
Fe      0.0080690000000000   -3.3916810000000002   -3.7793850000000000
Fe      2.1770510000000001   -4.1675319999999996   -5.0336999999999996
Fe      3.2297400000000001    1.6528220000000000   -3.5407310000000001
Fe     -0.0549270000000000   -0.9104330000000000   -3.7508520000000001
Fe      0.7988160000000000    1.6059349999999999   -3.5807699999999998
Fe      3.4077120000000001   -2.0601620000000000   -5.7702119999999999
Fe      2.0762849999999999   -0.0188760000000000   -5.0115410000000002
Fe      0.8729930000000000   -2.1142230000000000   -5.8109760000000001
