   86
 
C      -0.2131930000000000    4.0309689999999998   -2.8657740000000000
C      -2.9817230000000001    1.5855740000000000   -3.1571170000000000
C      -3.1346029999999998    0.8667690000000000   -5.5029440000000003
C       1.4523170000000001    4.9189959999999999   -1.2147319999999999
C      -0.8778260000000000    5.5108340000000000   -0.9147950000000000
C       1.7853490000000001    5.6119199999999996   -0.0486070000000000
C      -0.5449040000000001    6.1970010000000002    0.2551690000000000
C       0.7828640000000000    6.2434349999999998    0.6926650000000000
C      -2.1991299999999998    1.8385260000000001   -5.8659889999999999
C      -3.5311590000000002    0.7703290000000000   -4.1645000000000003
C       0.1193640000000000    4.8568150000000001   -1.6511990000000001
C      -0.4452550000000000    4.7907260000000003   -4.1641719999999998
C      -0.8142690000000000    3.8196530000000002   -5.2678089999999997
C      -1.6309680000000000    2.7007979999999998   -4.8727169999999997
C      -2.0135459999999998    2.5077060000000002   -3.5235940000000001
H      -1.2169209999999999    2.7806989999999998   -7.1655959999999999
H      -4.7644989999999998   -0.6520060000000000   -4.5192410000000001
H      -3.2903099999999998    1.4610010000000000   -2.1182720000000002
H      -1.2487280000000001    5.5384140000000004   -4.0526190000000000
H       0.4711710000000000    5.3273590000000004   -4.4425239999999997
H      -3.5694490000000001    0.2273960000000000   -6.2718489999999996
H       0.5919550000000000    3.2843510000000000   -3.0241199999999999
H       2.2337460000000000    4.4157989999999998   -1.7924830000000000
H      -1.9181459999999999    5.4518319999999996   -1.2366720000000000
H       2.8192560000000002    5.6333180000000000    0.2962330000000000
H      -1.3284849999999999    6.6885990000000000    0.8333060000000000
H       1.0266649999999999    6.7666430000000002    1.6184890000000001
O      -0.4605770000000000    4.0154589999999999   -6.4533069999999997
O      -1.8562310000000000    1.9871350000000001   -7.1500560000000002
O      -4.4595539999999998   -0.1353140000000000   -3.7510729999999999
O      -1.4157999999999999    3.2265860000000002   -2.5007980000000001
Fe      0.5747290000000000   -2.0417220000000000    5.9023550000000000
Fe      0.5660360000000000   -6.1978010000000001    3.8594430000000002
Fe      1.7252460000000001   -4.1755220000000000    4.8011809999999997
Fe     -0.5796670000000000   -4.1658879999999998    4.7984159999999996
Fe      2.9185340000000002   -2.0566309999999999    5.0630639999999998
Fe      4.1678329999999999   -4.2433259999999997    4.4832660000000004
Fe      4.1831750000000003    0.1107280000000000    4.4936280000000002
Fe      2.6900800000000000   -5.6315099999999996    2.9062389999999998
Fe      4.8966050000000001   -2.0695809999999999    3.4119530000000000
Fe      1.7411770000000000    0.0812360000000000    4.8021529999999997
Fe     -1.7602230000000001   -2.0278170000000002    5.0626660000000001
Fe     -3.0151900000000000   -4.2035929999999997    4.4680070000000001
Fe      4.8328249999999997   -4.1286790000000000    2.0707290000000000
Fe      2.7711120000000000   -3.2154410000000002    2.8387229999999999
Fe     -0.5648960000000000    0.0991920000000000    4.7927520000000001
Fe      0.5849150000000000   -2.0412170000000001    3.5257700000000001
Fe     -1.5432910000000000   -5.6101590000000003    2.8929309999999999
Fe      0.5809410000000000   -4.1716110000000004    2.3925010000000002
Fe      2.7813460000000001   -0.8953460000000000    2.8422049999999999
Fe     -3.0019200000000001    0.1554060000000000    4.4617860000000000
Fe      0.5733000000000000   -6.1632360000000004    1.1813590000000000
Fe     -1.6068990000000001   -3.1909040000000002    2.8285390000000001
Fe      4.8444760000000002    0.0010720000000000    2.0864680000000000
Fe      0.5979430000000000    2.1137239999999999    3.8521649999999998
Fe      2.7207089999999998    1.5245450000000000    2.9146260000000002
Fe      2.7656969999999998   -4.5209700000000002    0.8001460000000000
Fe     -3.7268560000000002   -2.0222030000000002    3.3934590000000000
Fe      4.0612500000000002   -2.0626989999999998    0.8472470000000000
Fe     -1.5964980000000000   -0.8731409999999999    2.8331590000000002
Fe      0.5988090000000000    0.0875700000000000    2.3909760000000002
Fe     -3.6669580000000002   -4.0860709999999996    2.0534970000000001
Fe      1.7574680000000000   -2.0491150000000000    0.9616730000000000
Fe     -1.5133280000000000    1.5495099999999999    2.8833720000000000
Fe     -1.5974219999999999   -4.4962179999999998    0.7884870000000000
Fe      2.7826450000000000    0.4144160000000000    0.8121130000000000
Fe     -0.5710310000000000   -2.0367839999999999    0.9680879999999999
Fe      0.5900420000000000   -3.9995880000000001   -0.0306970000000000
Fe      1.8078040000000000   -5.7721489999999998   -1.0977859999999999
Fe     -3.6528719999999999    0.0440980000000000    2.0537339999999999
Fe      0.6126100000000000    2.0906189999999998    1.1889930000000000
Fe     -2.8704900000000002   -2.0215519999999998    0.8241840000000000
Fe     -0.6263990000000000   -5.7576070000000001   -1.0958690000000000
Fe      2.7262010000000001   -3.2921290000000001   -1.2361009999999999
Fe     -1.5770640000000000    0.4251420000000000    0.7972860000000001
Fe      0.6118020000000000   -0.0787110000000000   -0.0289790000000000
Fe      2.7455970000000001   -0.8080039999999999   -1.2343480000000000
Fe      0.6004170000000000   -2.0388240000000000   -1.2977630000000000
Fe     -1.5360680000000000   -3.2663380000000002   -1.2459769999999999
Fe      0.5966600000000000   -4.1079639999999999   -2.5383290000000001
Fe      1.8597830000000000    1.6717160000000000   -1.0762590000000001
Fe     -1.5146070000000000   -0.7820500000000000   -1.2487880000000000
Fe     -0.5980240000000000    1.6924319999999999   -1.0667219999999999
Fe      1.8916869999999999   -2.0445790000000001   -3.3011689999999998
Fe      0.6449120000000000    0.0324830000000000   -2.5323129999999998
Fe     -0.6520720000000000   -2.0145300000000002   -3.3015390000000000
