   86
 
C       1.4704480000000000   -4.3174109999999999    2.8338100000000002
C      -0.5302280000000000   -4.0165509999999998   -0.2828120000000000
C       1.0048340000000000   -3.8453480000000000   -2.2371599999999998
C       1.1638949999999999   -4.7840389999999999    5.3090750000000000
C       0.3679170000000000   -2.6851419999999999    4.4133709999999997
C       0.7310600000000000   -4.4018490000000003    6.5840670000000001
C      -0.0687910000000000   -2.3046280000000001    5.6807509999999999
C       0.1121900000000000   -3.1627960000000002    6.7720159999999998
C       2.1115460000000001   -3.6807099999999999   -1.3552080000000000
C      -0.2892010000000000   -4.0958920000000001   -1.6944129999999999
C       0.9882260000000000   -3.9279799999999998    4.2157299999999998
C       2.7562090000000001   -3.5657990000000002    2.4418700000000002
C       3.0679590000000001   -3.6044320000000001    0.9558219999999999
C       1.9293560000000001   -3.5960390000000002    0.0717690000000000
C       0.5727200000000000   -3.7158500000000001    0.6045950000000000
H       3.9628709999999998   -3.6751749999999999   -1.0222000000000000
H      -1.2436980000000000   -4.2226189999999999   -3.3510949999999999
H      -1.4013359999999999   -4.5454610000000004    0.1108320000000000
H       2.6634579999999999   -2.5092900000000000    2.7519879999999999
H       3.6049530000000001   -3.9921359999999999    2.9932470000000002
H       1.2088049999999999   -4.1027589999999998   -3.2760110000000000
H       1.6732220000000000   -5.4023899999999996    2.8022969999999998
H       1.6332819999999999   -5.7595200000000002    5.1637719999999998
H       0.1962330000000000   -2.0148839999999999    3.5619060000000000
H       0.8666820000000000   -5.0790689999999996    7.4285959999999998
H      -0.5582589999999999   -1.3375560000000000    5.8097360000000000
H      -0.2347600000000000   -2.8688449999999999    7.7638790000000002
O       4.2563709999999997   -3.6772710000000002    0.5299580000000000
O       3.3489429999999998   -3.6880549999999999   -1.8533550000000001
O      -1.3013150000000000   -4.6394070000000003   -2.4614980000000002
O       0.3435390000000000   -4.0954920000000001    1.9310170000000000
Fe     -0.8836840000000000    1.8883479999999999    3.0114589999999999
Fe     -0.6683200000000000   -2.0876180000000000    0.6721980000000000
Fe      0.3704270000000000   -0.0935770000000000    1.8410420000000001
Fe     -1.9241999999999999   -0.2179060000000000    1.7312909999999999
Fe      1.4989390000000000    1.9975350000000001    2.3264589999999998
Fe      2.8821690000000002   -0.0625940000000000    1.7552930000000000
Fe      2.8027250000000001    4.1734499999999999    1.9397750000000000
Fe      1.5753590000000000   -1.4561510000000000    0.0887600000000000
Fe      3.5985649999999998    2.1153900000000001    0.7750320000000001
Fe      0.2929740000000000    4.0980790000000002    2.1081460000000001
Fe     -3.1610790000000000    1.8956080000000000    2.0176500000000002
Fe     -4.3448750000000000   -0.2280010000000000    1.2811100000000000
Fe      3.6591070000000001   -0.0014110000000000   -0.5685420000000000
Fe      1.5376500000000000    0.9607850000000000    0.0486620000000000
Fe     -2.0091290000000002    4.0477970000000001    1.9572200000000000
Fe     -0.7431500000000000    2.0179090000000000    0.6403050000000000
Fe     -2.7896260000000002   -1.5342370000000001   -0.2761170000000000
Fe     -0.6051240000000000   -0.0229940000000000   -0.6125620000000001
Fe      1.4692740000000000    3.2694209999999999    0.1823040000000000
Fe     -4.4466080000000003    4.0584179999999996    1.4997110000000000
Fe     -0.4915550000000000   -1.9957060000000000   -1.9460240000000000
Fe     -2.8544220000000000    0.8601960000000000   -0.2472970000000000
Fe      3.5376850000000002    4.3413240000000002   -0.4009560000000000
Fe     -0.8699040000000000    6.1765220000000003    1.1586520000000000
Fe      1.3197399999999999    5.6613389999999999    0.3969670000000000
Fe      1.7070590000000001   -0.2127330000000000   -2.0104860000000002
Fe     -5.0467550000000001    1.9515450000000001    0.2566240000000000
Fe      2.9184530000000000    2.2576610000000001   -1.7399070000000001
Fe     -2.9285199999999998    3.1813090000000002   -0.1151240000000000
Fe     -0.7212300000000000    4.2100200000000001   -0.3548230000000000
Fe     -4.8448140000000004   -0.0486100000000000   -1.1744300000000001
Fe      0.5934460000000000    2.2015479999999998   -1.8375619999999999
Fe     -2.8983819999999998    5.5866049999999996    0.0928860000000000
Fe     -2.6740499999999998   -0.3414030000000000   -2.3277929999999998
Fe      1.5436040000000000    4.6918389999999999   -1.7715959999999999
Fe     -1.7239450000000001    2.1464240000000001   -1.9567110000000001
Fe     -0.4498040000000000    0.2509080000000000   -2.9937819999999999
Fe      0.8237860000000000   -1.3888259999999999   -4.0811000000000002
Fe     -4.9606909999999997    4.1531529999999997   -0.9129310000000000
Fe     -0.7198420000000000    6.2690520000000003   -1.4446690000000000
Fe     -4.0401749999999996    2.1241930000000000   -2.2143340000000000
Fe     -1.6049190000000000   -1.4505470000000000   -4.2547790000000001
Fe      1.7299680000000000    1.1110260000000001   -4.0137409999999996
Fe     -2.8466640000000001    4.5805920000000002   -2.0789450000000000
Fe     -0.5841940000000000    4.2059240000000004   -2.7624629999999999
Fe      1.6376130000000000    3.5899809999999999   -3.8967369999999999
Fe     -0.4452890000000000    2.3141200000000000   -4.1162060000000000
Fe     -2.5326330000000001    1.0128530000000000   -4.2640620000000000
Fe     -0.3109530000000000    0.3190720000000000   -5.4788340000000000
Fe      0.6988010000000000    6.0152020000000004   -3.6487690000000002
Fe     -2.6158549999999998    3.4924960000000000   -4.1750840000000000
Fe     -1.7667860000000000    5.9768200000000000   -3.8185490000000000
Fe      0.9436490000000000    2.4327040000000002   -6.0399029999999998
Fe     -0.4367650000000000    4.4420999999999999   -5.2477210000000003
Fe     -1.6041810000000001    2.3774359999999999   -6.1953589999999998
