   86
 
C       2.3311169999999999    3.9561700000000002    1.8160790000000000
C       4.0464349999999998    4.7505720000000000   -1.2828240000000000
C       2.7753760000000001    6.4023580000000004   -2.5852719999999998
C       1.4272520000000000    2.3164660000000001    3.5727440000000001
C       3.6303879999999999    1.8915480000000000    2.5728320000000000
C       1.5569820000000001    1.1433240000000000    4.3622259999999997
C       3.7604410000000001    0.7162480000000000    3.3614160000000002
C       2.7176559999999998    0.3265210000000000    4.2451480000000004
C       1.6980660000000001    6.2668489999999997   -1.7054170000000000
C       3.9329499999999999    5.6522110000000003   -2.3569760000000000
C       2.4521660000000001    2.6933569999999998    2.6539400000000000
C       0.8917230000000000    4.3983580000000000    1.5469690000000000
C       0.7080500000000000    5.2930250000000001    0.3530950000000000
C       1.7982510000000000    5.3993789999999997   -0.5734220000000000
C       2.9817900000000002    4.6372010000000001   -0.4024930000000000
H      -0.0559300000000000    6.6739309999999996   -1.1643880000000000
H       4.8392340000000003    6.4183360000000000   -3.8596290000000000
H       4.9569900000000002    4.1726020000000004   -1.1413860000000000
H       0.1957610000000000    3.5172300000000001    1.3787990000000001
H       0.4690200000000000    4.9116220000000004    2.4261870000000001
H       2.6905489999999999    7.0861950000000000   -3.4303290000000000
H       2.8583580000000000    4.7787379999999997    2.3406460000000000
H       0.5176870000000000    2.9114249999999999    3.6677890000000000
H       4.4218820000000001    2.1761620000000002    1.8813359999999999
H       0.7619610000000000    0.8642390000000000    5.0564499999999999
H       4.6554270000000004    0.1010310000000000    3.2725970000000002
H       2.8166890000000002   -0.5707310000000000    4.8571660000000003
O      -0.3890750000000000    5.8843600000000000    0.1846680000000000
O       0.5687770000000000    6.9503950000000003   -1.9239440000000001
O       5.0281289999999998    5.7618910000000003   -3.1647639999999999
O       3.0916880000000000    3.7127979999999998    0.5977660000000000
Fe     -1.4193229999999999   -1.9733719999999999    3.7162869999999999
Fe     -0.8536600000000000   -6.1970000000000001    1.9035880000000001
Fe     -0.0054800000000000   -3.9713859999999999    2.7336090000000000
Fe     -2.2943050000000000   -4.2704740000000001    2.7127740000000000
Fe      0.9295450000000000   -1.7038409999999999    2.8700180000000000
Fe      2.4428679999999998   -3.6729140000000000    2.4803030000000001
Fe      1.9145040000000000    0.6715650000000000    2.2913389999999998
Fe      1.1994980000000000   -5.3664030000000000    0.9651760000000000
Fe      2.9014180000000001   -1.4903620000000000    1.2963620000000000
Fe     -0.5689820000000000    0.2267140000000000    2.5007790000000001
Fe     -3.7494790000000000   -2.3260160000000001    2.8070240000000002
Fe     -4.7271820000000000   -4.6574049999999998    2.3401980000000000
Fe      3.1532700000000000   -3.6341079999999999    0.0809150000000000
Fe      0.9647140000000000   -2.9782160000000002    0.7303620000000000
Fe     -2.8519990000000002   -0.0694840000000000    2.4551789999999998
Fe     -1.3846449999999999   -2.0898310000000002    1.3526069999999999
Fe     -3.0234030000000001   -5.9528109999999996    0.9079360000000000
Fe     -1.0899080000000001   -4.2549140000000003    0.3324660000000000
Fe      0.6616240000000000   -0.6734869999999999    0.6242750000000000
Fe     -5.2514329999999996   -0.3696050000000000    2.0789970000000002
Fe     -0.7835690000000000   -6.3009649999999997   -0.7363880000000000
Fe     -3.3989769999999999   -3.5896699999999999    0.6625110000000000
Fe      2.5806580000000001    0.4806340000000000   -0.1348670000000000
Fe     -1.9909930000000000    2.0107689999999998    1.4322740000000000
Fe      0.1455490000000000    1.6465259999999999    0.5096340000000000
Fe      1.1832689999999999   -4.3971730000000004   -1.2071730000000001
Fe     -5.6676060000000001   -2.7065280000000000    1.1126959999999999
Fe      2.1494990000000000   -1.7919210000000001   -1.2672720000000000
Fe     -3.7131720000000001   -1.2911239999999999    0.5256290000000000
Fe     -1.6594730000000000   -0.0663610000000000    0.0717630000000000
Fe     -5.3144299999999998   -4.8581060000000003   -0.0934170000000000
Fe     -0.1697360000000000   -2.0928550000000001   -1.2204280000000001
Fe     -3.9545180000000002    1.1199539999999999    0.4198150000000000
Fe     -3.1717599999999999   -5.0064599999999997   -1.2819330000000000
Fe      0.5343340000000000    0.4515280000000000   -1.4934559999999999
Fe     -2.4727999999999999   -2.4006500000000002   -1.2471900000000000
Fe     -1.0375690000000000   -4.2648859999999997   -2.0950080000000000
Fe      0.4298660000000000   -5.8849320000000001   -3.0410789999999999
Fe     -5.8612180000000000   -0.7161790000000000   -0.3235890000000000
Fe     -1.8749169999999999    1.8484550000000000   -1.2779750000000001
Fe     -4.7801840000000002   -2.7575740000000000   -1.3954670000000000
Fe     -2.0085799999999998   -6.2201519999999997   -3.0788899999999999
Fe      1.0008670000000000   -3.3143210000000001   -3.3220030000000000
Fe     -3.8407160000000000   -0.1421410000000000   -1.5964870000000000
Fe     -1.5681440000000000   -0.3461770000000000   -2.3370350000000002
Fe      0.6706730000000000   -0.8591590000000000   -3.4727720000000000
Fe     -1.2691280000000000   -2.3809920000000000   -3.4732699999999999
Fe     -3.2139190000000002   -3.8921839999999999   -3.3939900000000001
Fe     -0.9697450000000000   -4.5051709999999998   -4.5926390000000001
Fe     -0.5492080000000000    1.4830620000000001   -3.4727269999999999
Fe     -3.5423800000000001   -1.4404079999999999   -3.5602160000000000
Fe     -2.9882379999999999    1.1592180000000001   -3.5281560000000001
Fe      0.0191810000000000   -2.3408959999999999   -5.4701050000000002
Fe     -1.5147740000000001   -0.4028530000000000   -4.8407349999999996
Fe     -2.4815730000000000   -2.6707700000000001   -5.5172590000000001
