   74
 
C      -1.4300600000000001   -3.8496410000000001    3.5075630000000002
C      -1.6093409999999999   -4.2561070000000001    2.1492930000000001
C      -2.7002060000000001   -3.8641220000000001    1.2837030000000000
C      -2.3943520000000000   -3.7251460000000001   -0.1149300000000000
C      -3.2545809999999999   -2.8899010000000001   -0.9597220000000000
C      -3.0207769999999998   -2.8690340000000001   -2.3923649999999999
C      -2.0764000000000000   -3.7742309999999999   -2.9891920000000001
C      -1.0648169999999999   -4.3621689999999997   -2.1483210000000001
C      -1.1902140000000001   -4.3357219999999996   -0.6997360000000000
H      -0.8731300000000000   -4.9947070000000000    1.8277639999999999
H      -3.7070910000000001   -3.6666949999999998    1.6570149999999999
H      -4.2916850000000002   -2.7492510000000001   -0.6212259999999999
H      -3.7895189999999999   -2.4232060000000000   -3.0241129999999998
H      -2.1602290000000002   -4.0525840000000004   -4.0433849999999998
H      -0.4069230000000000   -5.1122069999999997   -2.5886849999999999
H      -0.7544490000000000   -5.1857850000000001   -0.1671920000000000
O      -2.4963720000000000   -3.2296309999999999    4.1524660000000004
O      -0.3297760000000000   -3.9654769999999999    4.1188459999999996
Fe      0.8718550000000000    1.1557350000000000    4.1891769999999999
Fe      0.6492590000000000   -2.9554440000000000    2.4007399999999999
Fe      1.9246040000000000   -1.0121400000000000    2.9715020000000001
Fe     -0.3818360000000000   -0.8812640000000000    3.0945339999999999
Fe      3.1957719999999998    1.0442880000000001    3.1765330000000001
Fe      4.3482130000000003   -1.1532009999999999    2.4501789999999999
Fe      4.5165210000000000    3.1730339999999999    2.5882790000000000
Fe      2.6217709999999999   -2.4991770000000000    1.0226059999999999
Fe      5.0335910000000004    1.0294639999999999    1.3845149999999999
Fe      2.0599520000000000    3.1858300000000002    3.0681349999999998
Fe     -1.5178739999999999    1.1730929999999999    3.4737290000000001
Fe     -2.8515640000000002   -0.9985630000000000    2.8836940000000002
Fe      4.7875310000000004   -1.1298239999999999    0.0703210000000000
Fe      2.8329870000000001   -0.0713790000000000    0.9583429999999999
Fe     -0.2635940000000000    3.2646169999999999    3.2340629999999999
Fe      0.7316390000000000    1.1255029999999999    1.8047650000000000
Fe     -1.4128000000000001   -2.3169990000000000    1.1922330000000001
Fe      0.5916120000000000   -1.0325470000000001    0.6296030000000000
Fe      2.9217230000000001    2.2749779999999999    1.0312699999999999
Fe     -2.7122980000000001    3.4222350000000001    3.0801880000000001
Fe      0.4031290000000000   -2.9327040000000002   -0.8541990000000000
Fe     -1.5362570000000000    0.0606880000000000    1.1831590000000001
Fe      4.9464519999999998    3.2688510000000002    0.1868140000000000
Fe      0.8911870000000000    5.3077740000000002    2.2590059999999998
Fe      2.9589560000000001    4.7118849999999997    1.2353140000000000
Fe      2.6609099999999999   -1.2840570000000000   -1.0904240000000001
Fe     -3.5846269999999998    1.2793060000000001    2.0080600000000000
Fe      4.0833760000000003    1.1278319999999999   -0.9795350000000000
Fe     -1.4671980000000000    2.3809809999999998    1.3140570000000000
Fe      0.7260040000000000    3.3049050000000002    0.7725490000000000
Fe     -3.7398039999999999   -0.6585520000000000    0.5784020000000000
Fe      1.7471330000000000    1.2203880000000000   -0.8098180000000000
Fe     -1.3031720000000000    4.8104709999999997    1.4840480000000000
Fe     -1.9390870000000000   -1.2461780000000000   -0.8971650000000000
Fe      2.8211179999999998    3.6789800000000001   -0.9101780000000000
Fe     -0.5831520000000000    1.2552859999999999   -0.6636590000000000
Fe      0.4592160000000000   -0.6944370000000000   -1.7759080000000000
Fe      1.7307690000000000   -2.2870740000000001   -3.0637940000000001
Fe     -3.5332450000000000    3.4704320000000002    0.7765550000000000
Fe      0.7177930000000000    5.3316270000000001   -0.3648040000000000
Fe     -2.9247719999999999    1.3797750000000000   -0.5926160000000000
Fe     -0.8494060000000000   -2.2295579999999999   -2.8960490000000001
Fe      2.5854550000000001    0.0642420000000000   -3.0826940000000000
Fe     -1.5522899999999999    3.7599589999999998   -0.6503460000000000
Fe      0.5752410000000000    3.2443000000000000   -1.6472190000000000
Fe      2.6401500000000002    2.5111390000000000   -2.9953660000000002
Fe      0.4697720000000000    1.3232150000000000   -2.9650930000000000
Fe     -1.6920999999999999    0.2075790000000000   -2.8307300000000000
Fe      0.3587320000000000   -0.6511780000000000   -4.3301309999999997
Fe      1.8206240000000000    4.9647990000000002   -2.7401610000000001
Fe     -1.6314580000000001    2.6347689999999999   -2.7715360000000002
Fe     -0.6835540000000000    5.0366629999999999   -2.5698770000000000
Fe      1.6524550000000000    1.3959880000000000   -5.0327180000000000
Fe      0.4436230000000000    3.4224380000000001   -4.1525770000000000
Fe     -0.9557130000000000    1.4294140000000000   -4.8832050000000002
H      -2.1082540000000001   -2.9139430000000002    4.9975360000000002
