   74
 
C       3.8564620000000001    1.6923360000000001    3.7764090000000001
C       2.9384530000000000    0.6197920000000000    3.9756990000000001
C       1.5011380000000001    0.7778160000000000    4.1967449999999999
C       0.6497810000000001   -0.3827410000000000    4.3774270000000000
C      -0.7549500000000000   -0.1460050000000000    4.6312119999999997
C      -1.7187539999999999   -1.1670350000000000    4.3262510000000001
C      -1.3056140000000001   -2.4820169999999999    3.9517509999999998
C       0.1016990000000000   -2.7451189999999999    3.7324989999999998
C       1.0987960000000001   -1.7252080000000001    3.9653879999999999
H       3.4127160000000001   -0.2854880000000000    4.3573409999999999
H       1.1494439999999999    1.7360679999999999    4.5944919999999998
H      -1.0735459999999999    0.7417490000000000    5.1827540000000001
H      -2.7585820000000001   -1.0064750000000000    4.6202100000000002
H      -1.9977180000000001   -3.3199779999999999    4.0492869999999996
H       0.4251980000000000   -3.7885350000000000    3.7454689999999999
H       2.0957370000000002   -2.0532290000000000    4.2723230000000001
O       5.1371719999999996    1.4013590000000000    4.1394630000000001
O       3.6397379999999999    2.8717959999999998    3.3071890000000002
Fe     -0.2563900000000000    0.5810470000000000    2.7840110000000000
Fe      0.0703540000000000   -3.9088379999999998    0.9099000000000000
Fe      1.0185070000000001   -1.7440670000000000    1.8901960000000000
Fe     -1.3142769999999999   -1.9632609999999999    1.9580240000000000
Fe      2.0917539999999999    0.5255940000000000    1.9899670000000000
Fe      3.4560870000000001   -1.5025280000000001    1.4892600000000000
Fe      3.0949499999999999    2.7500060000000000    1.4113380000000000
Fe      2.1415709999999999   -3.1296919999999999    0.0275020000000000
Fe      4.0253759999999996    0.6482760000000000    0.2662340000000000
Fe      0.6714670000000000    2.5833759999999999    1.5724910000000001
Fe     -2.5907840000000002    0.1183040000000000    2.0213100000000002
Fe     -3.7067790000000000   -2.2061459999999999    1.5014700000000001
Fe      4.1050649999999997   -1.4936940000000001   -0.9548340000000000
Fe      1.9968440000000001   -0.7268800000000000   -0.1847490000000000
Fe     -1.6173979999999999    2.3596550000000001    1.6390579999999999
Fe     -0.2631080000000000    0.2460800000000000    0.4602750000000000
Fe     -2.1078180000000000   -3.5027309999999998    0.0394470000000000
Fe     -0.1215410000000000   -1.8982580000000000   -0.4972050000000000
Fe      1.8142700000000000    1.5910770000000001   -0.2909070000000000
Fe     -4.0605710000000004    2.1345470000000000    1.3937569999999999
Fe      0.0399250000000000   -3.9008330000000000   -1.6699820000000001
Fe     -2.3944369999999999   -1.1136340000000000   -0.1341590000000000
Fe      3.7608600000000001    2.6616659999999999   -1.1082310000000000
Fe     -0.6408000000000000    4.4405500000000000    0.5216110000000000
Fe      1.5245919999999999    3.9791409999999998   -0.3502440000000000
Fe      2.0524360000000001   -2.1296780000000002   -2.1521040000000000
Fe     -4.6040570000000001   -0.1044160000000000    0.4013890000000000
Fe      3.1530260000000001    0.4578780000000000   -2.2734559999999999
Fe     -2.5743790000000000    1.1935290000000001   -0.2307200000000000
Fe     -0.4772510000000000    2.2988270000000002   -0.7619050000000001
Fe     -4.3988440000000004   -2.1973029999999998   -0.8627600000000000
Fe      0.8310070000000001    0.2321420000000000   -2.0895929999999998
Fe     -2.7287360000000001    3.6017100000000002   -0.2810420000000000
Fe     -2.3027080000000000   -2.4916900000000002   -2.1112760000000002
Fe      1.6570650000000000    2.7618849999999999   -2.3897349999999999
Fe     -1.4714980000000000    0.0509160000000000   -2.0604710000000002
Fe     -0.1699080000000000   -1.8746330000000000   -2.9712510000000001
Fe      1.2137530000000001   -3.5277840000000000   -4.0040570000000004
Fe     -4.7404809999999999    1.9046010000000000   -1.0055700000000001
Fe     -0.6783200000000000    4.2343310000000001   -2.0792739999999998
Fe     -3.7940399999999999   -0.1270680000000000   -2.1673789999999999
Fe     -1.2561670000000000   -3.7300650000000002   -3.9802780000000002
Fe      1.8866480000000001   -0.9944390000000000   -4.2404440000000001
Fe     -2.7281110000000002    2.3880249999999998   -2.3305050000000000
Fe     -0.4992200000000000    2.0361069999999999   -3.1706850000000002
Fe      1.6826030000000001    1.4451350000000001   -4.3747119999999997
Fe     -0.3532990000000000    0.0206840000000000   -4.3235289999999997
Fe     -2.3721130000000001   -1.3572720000000000   -4.1922490000000003
Fe     -0.1768880000000000   -2.0670060000000001   -5.4804320000000004
Fe      0.5501830000000000    3.8462260000000001   -4.3212590000000004
Fe     -2.5826989999999999    1.0963499999999999   -4.3256139999999998
Fe     -1.8972739999999999    3.6389429999999998   -4.2937919999999998
Fe      0.8834220000000000    0.0586220000000000   -6.3628559999999998
Fe     -0.5379990000000000    2.0368849999999998   -5.6661530000000004
Fe     -1.6223930000000000   -0.1507400000000000   -6.3390139999999997
H       5.6738799999999996    2.1556240000000000    3.8232390000000001
