   78
 
C       2.2804630000000001   -2.9048780000000001    4.3144119999999999
C       4.4800529999999998   -3.3915639999999998    5.1978179999999998
C       4.4880490000000002   -4.6140020000000002    4.5269719999999998
C      -0.0492600000000000   -4.0648309999999999    3.0982289999999999
C       3.3811840000000002   -2.5130539999999999    5.1119800000000000
C       2.2764210000000000   -4.1381569999999996    3.6668470000000002
C       3.3883679999999998   -4.9986879999999996    3.7603499999999999
C       3.8617340000000002    0.5005140000000000    7.5336749999999997
C       3.3089559999999998   -1.2367740000000000    5.8234139999999996
C       4.1036950000000001   -0.8051040000000000    6.8236270000000001
H       2.4988939999999999   -6.2631019999999999    2.6761629999999998
H       2.4937130000000001   -0.5634580000000000    5.5364709999999997
H       4.9249559999999999   -1.4099569999999999    7.2221489999999999
H       1.4229149999999999   -2.2352180000000001    4.2354870000000000
H       5.3469530000000001   -3.1105330000000002    5.7965799999999996
H       5.3392460000000002   -5.2927499999999998    4.5984600000000002
H      -0.7525970000000000   -4.6972170000000002    2.5433900000000000
H      -0.3209950000000000   -4.0436300000000003    4.1655800000000003
H      -0.0938580000000000   -3.0408040000000001    2.6808950000000000
O       3.0855359999999998    1.3552100000000000    7.0107629999999999
O       4.4587450000000004    0.6582519999999999    8.6464560000000006
O       3.3730400000000000   -6.2104049999999997    3.1140430000000001
O       1.2398540000000000   -4.6538990000000000    2.9101330000000001
Fe     -1.2184919999999999    1.0916660000000000    2.1836709999999999
Fe     -1.2124560000000000   -2.9771450000000002   -0.0438780000000000
Fe     -0.0628200000000000   -0.9863170000000000    1.0068520000000001
Fe     -2.3649860000000000   -0.9881900000000000    0.9883890000000000
Fe      1.1321550000000000    1.1172990000000000    1.3681580000000000
Fe      2.3722300000000001   -1.0552090000000001    0.7556880000000000
Fe      2.3940410000000001    3.3116140000000001    0.8499570000000000
Fe      0.9332110000000000   -2.3898329999999999   -0.9032980000000000
Fe      3.1193919999999999    1.1601399999999999   -0.2741290000000000
Fe     -0.0490970000000000    3.2601570000000000    1.1522349999999999
Fe     -3.5439520000000000    1.1353819999999999    1.3065709999999999
Fe     -4.7930830000000002   -1.0222979999999999    0.6390200000000000
Fe      3.0602980000000000   -0.8611480000000000   -1.6601859999999999
Fe      1.0059769999999999    0.0301030000000000   -0.9017180000000000
Fe     -2.3511129999999998    3.2645550000000001    1.1237520000000001
Fe     -1.1887270000000001    1.1743140000000001   -0.1947420000000000
Fe     -3.3205030000000000   -2.3766759999999998   -0.9605580000000000
Fe     -1.1826390000000000   -0.9095270000000000   -1.4069600000000000
Fe      1.0071950000000001    2.3452890000000002   -0.8328350000000000
Fe     -4.7856579999999997    3.3339880000000002    0.7710630000000001
Fe     -1.1784779999999999   -2.8687450000000001   -2.6782800000000000
Fe     -3.3717400000000000    0.0459060000000000   -0.9567890000000000
Fe      3.0747330000000002    3.2630819999999998   -1.5538050000000001
Fe     -1.1842299999999999    5.3182029999999996    0.2604130000000000
Fe      0.9330970000000000    4.7609389999999996   -0.6961970000000000
Fe      1.0104720000000000   -1.2213940000000001   -2.9771269999999999
Fe     -5.4962929999999997    1.1920240000000000   -0.3756330000000000
Fe      2.3026460000000002    1.2454499999999999   -2.8586040000000001
Fe     -3.3667289999999999    2.3612389999999999   -0.8842210000000000
Fe     -1.1732689999999999    3.3323280000000000   -1.2654369999999999
Fe     -5.4257309999999999   -0.8252030000000000   -1.7695829999999999
Fe      0.0001320000000000    1.2500340000000001   -2.7428469999999998
Fe     -3.2858540000000001    4.7762130000000003   -0.7397300000000000
Fe     -3.3480430000000001   -1.2089950000000000   -3.0280980000000000
Fe      1.0253180000000000    3.7187410000000001   -2.8321869999999998
Fe     -2.3284850000000001    1.2571070000000000   -2.7703380000000002
Fe     -1.1590790000000000   -0.6706660000000000   -3.8162820000000002
Fe      0.0601210000000000   -2.4057320000000000   -4.9287739999999998
Fe     -5.4191750000000001    3.2914590000000001   -1.6422580000000000
Fe     -1.1623330000000001    5.3653519999999997   -2.4103569999999999
Fe     -4.6266309999999997    1.2685770000000001   -2.9367209999999999
Fe     -2.3692620000000000   -2.3989060000000002   -4.9549370000000001
Fe      0.9836110000000000    0.0785360000000000   -4.9730970000000001
Fe     -3.3420679999999998    3.7346670000000000   -2.8760849999999998
Fe     -1.1513270000000000    3.2442859999999998   -3.6871770000000001
Fe      0.9897960000000000    2.5509210000000002   -4.9009440000000000
Fe     -1.1412570000000000    1.3271970000000000   -5.0159760000000002
Fe     -3.2740830000000001    0.0935880000000000   -5.0188920000000001
Fe     -1.1357919999999999   -0.7109300000000000   -6.3264670000000001
Fe      0.0748560000000000    5.0357490000000000   -4.6954300000000000
Fe     -3.2712180000000002    2.5641750000000001   -4.9433020000000001
Fe     -2.3513780000000000    5.0445770000000003   -4.7178139999999997
Fe      0.1352650000000000    1.3808650000000000   -7.0146949999999997
Fe     -1.1279170000000001    3.4360460000000002   -6.1934550000000002
Fe     -2.3867200000000000    1.3891929999999999   -7.0398129999999997
