   78
 
C       3.3629110000000000   -1.6100319999999999    5.0162800000000001
C       4.6740180000000002   -1.8279310000000000    2.9906890000000002
C       5.8368669999999998   -1.5412410000000001    3.7092679999999998
C       3.3888140000000000   -1.2193840000000000    7.8423879999999997
C       3.4156789999999999   -1.8908110000000000    3.6303969999999999
C       4.5236330000000002   -1.3442200000000000    5.7308329999999996
C       5.7762969999999996   -1.3137939999999999    5.0813220000000001
C       1.0039750000000001   -3.8670670000000000    1.3283480000000001
C       2.1848489999999998   -2.2975940000000001    2.9439199999999999
C       2.1970770000000002   -3.1673360000000002    1.8133020000000000
H       6.6345669999999997   -0.9382870000000000    6.7266029999999999
H       1.2700300000000000   -2.2769070000000000    3.5461600000000000
H       3.1344240000000001   -3.5447920000000002    1.4020740000000000
H       2.3958510000000000   -1.6494620000000000    5.5170339999999998
H       4.7474600000000002   -2.0069509999999999    1.9162189999999999
H       6.8079539999999996   -1.4975980000000000    3.2148089999999998
H       3.6677080000000002   -1.0563990000000001    8.8893970000000007
H       2.6586780000000001   -0.4542460000000000    7.5316710000000002
H       2.9421089999999999   -2.2202639999999998    7.7310520000000000
O      -0.1228090000000000   -3.8721690000000000    1.9919690000000001
O       1.1026890000000000   -4.4734949999999998    0.1664020000000000
O       6.9186800000000002   -1.0483739999999999    5.7975310000000002
O       4.6006260000000001   -1.1126520000000000    7.0944469999999997
Fe     -1.6008119999999999    1.0834310000000000    2.3447860000000000
Fe     -1.4318720000000000   -3.1419489999999999    0.6660640000000000
Fe     -0.3727040000000000   -1.0682700000000001    1.3824479999999999
Fe     -2.6877740000000001   -1.1116619999999999    1.3223689999999999
Fe      0.7840800000000000    1.0426029999999999    1.5173810000000001
Fe      2.0323440000000002   -1.1463779999999999    1.1905889999999999
Fe      2.0125169999999999    3.1810999999999998    0.8899500000000000
Fe      0.6966440000000000   -2.7131509999999999   -0.6086570000000000
Fe      2.8003130000000001    0.9830670000000000   -0.0418220000000000
Fe     -0.4515730000000000    3.1312160000000002    1.1598720000000000
Fe     -3.9387089999999998    0.9667829999999999    1.4167510000000001
Fe     -5.1071790000000004   -1.3022700000000000    0.9158880000000000
Fe      2.8276230000000000   -1.0901250000000000   -1.3098360000000000
Fe      0.7323820000000000   -0.2626920000000000   -0.6428720000000000
Fe     -2.7758750000000001    3.0715180000000002    1.0981150000000000
Fe     -1.5270480000000000    0.9098560000000000   -0.0272220000000000
Fe     -3.5324689999999999   -2.7380230000000001   -0.4917070000000000
Fe     -1.4578899999999999   -1.2856780000000001   -1.0404210000000000
Fe      0.6494240000000000    2.0707719999999998   -0.7413210000000000
Fe     -5.2290479999999997    3.0641680000000000    0.7181750000000000
Fe     -1.4569730000000001   -3.2877040000000002   -2.1957779999999998
Fe     -3.6863069999999998   -0.3263060000000000   -0.7252690000000001
Fe      2.6919970000000002    3.0436529999999999   -1.4838389999999999
Fe     -1.6479260000000000    5.0997830000000004    0.0717210000000000
Fe      0.5242550000000000    4.4953930000000000   -0.7388550000000000
Fe      0.7673080000000000   -1.5933949999999999   -2.6460680000000001
Fe     -5.8612140000000004    0.8173800000000000   -0.2656980000000000
Fe      2.0142699999999998    0.8908630000000000   -2.6323870000000000
Fe     -3.7521350000000000    2.0037820000000002   -0.8515530000000000
Fe     -1.5702940000000001    2.9853260000000001   -1.2570830000000000
Fe     -5.7247510000000004   -1.3141920000000000   -1.4721310000000001
Fe     -0.3226310000000000    0.8256810000000000   -2.5726719999999998
Fe     -3.7536730000000000    4.4252690000000001   -0.8547060000000000
Fe     -3.6261969999999999   -1.7297110000000000   -2.6826110000000001
Fe      0.6353040000000000    3.3142670000000001   -2.8100440000000000
Fe     -2.6430880000000001    0.7639110000000000   -2.6071130000000000
Fe     -1.4307220000000000   -1.2025459999999999   -3.4871680000000000
Fe     -0.1811620000000000   -2.9727100000000002   -4.4505290000000004
Fe     -5.8334330000000003    2.8417849999999998   -1.6754410000000000
Fe     -1.5932249999999999    4.9141849999999998   -2.5407270000000000
Fe     -4.9642869999999997    0.7241590000000000   -2.7795630000000000
Fe     -2.6275350000000000   -3.0243850000000001   -4.5276899999999998
Fe      0.6984370000000000   -0.4511370000000000   -4.7164029999999997
Fe     -3.7461479999999998    3.2252939999999999   -2.9232540000000000
Fe     -1.5309770000000000    2.7200679999999999   -3.6651300000000000
Fe      0.6359060000000000    1.9961380000000000   -4.8119490000000003
Fe     -1.4648049999999999    0.7116880000000000   -4.8453520000000001
Fe     -3.5576210000000001   -0.5810820000000000   -4.7667010000000003
Fe     -1.4019610000000000   -1.4090430000000000   -5.9887940000000004
Fe     -0.3231040000000000    4.4287720000000004   -4.7952219999999999
Fe     -3.6281620000000001    1.8873590000000000   -4.8775300000000001
Fe     -2.7687200000000001    4.4120429999999997   -4.8441169999999998
Fe     -0.1945220000000000    0.6544340000000000   -6.8507600000000002
Fe     -1.5096499999999999    2.7175090000000002   -6.1792170000000004
Fe     -2.7107169999999998    0.5801560000000000   -6.8810130000000003
