   78
 
C       1.9391220000000000   -0.0374830000000000   -4.8304689999999999
C       2.3825930000000000    2.3130370000000000   -4.2956870000000000
C       3.7455790000000002    2.0342080000000000   -4.2339940000000000
C       3.0595530000000002   -2.6846860000000001   -4.9167779999999999
C       1.4387190000000001    1.2952859999999999   -4.5864479999999999
C       3.3225410000000002   -0.3018540000000000   -4.7269040000000002
C       4.2248539999999997    0.7330150000000000   -4.4246559999999997
C      -2.1014990000000000    2.5315880000000002   -3.6390769999999999
C      -0.0130800000000000    1.4529650000000001   -4.4892839999999996
C      -0.7258280000000000    2.6546859999999999   -4.1324959999999997
H       5.6663720000000000   -0.4942370000000000   -4.4409390000000002
H      -0.5927470000000000    0.6540180000000000   -4.9746410000000001
H      -0.3037200000000000    3.6584509999999999   -4.1995300000000002
H       1.2722860000000000   -0.7782430000000000   -5.2895680000000000
H       2.0378769999999999    3.3285399999999998   -4.1032690000000001
H       4.4647690000000004    2.8183470000000002   -3.9963099999999998
H       3.7355950000000000   -3.5467990000000000   -4.9171329999999998
H       2.4226719999999999   -2.6975169999999999   -4.0125630000000001
H       2.4283880000000000   -2.7140610000000001   -5.8188860000000000
O      -2.7942000000000000    1.4265870000000000   -3.8560720000000002
O      -2.6383839999999998    3.5585499999999999   -3.0092889999999999
O       5.5652509999999999    0.4704130000000000   -4.3158230000000000
O       3.9100839999999999   -1.5274220000000001   -4.9175639999999996
Fe     -1.0893830000000000   -0.2082260000000000    6.0214129999999999
Fe     -0.9535709999999999   -4.3741099999999999    4.0198840000000002
Fe      0.1513440000000000   -2.3482680000000000    5.0566440000000004
Fe     -2.1546460000000001   -2.3337360000000000    4.8814820000000001
Fe      1.3134370000000000   -0.2230600000000000    5.3689410000000004
Fe      2.6322350000000001   -2.3980670000000002    4.9253280000000004
Fe      2.6258499999999998    1.9506690000000000    4.8353070000000002
Fe      1.2465180000000000   -3.8249439999999999    3.2735449999999999
Fe      3.4205329999999998   -0.2730840000000000    3.8695189999999999
Fe      0.1604730000000000    1.8916020000000000    4.9908380000000001
Fe     -3.3695360000000001   -0.2130530000000000    5.0014659999999997
Fe     -4.5658409999999998   -2.3975830000000000    4.3713110000000004
Fe      3.4323480000000002   -2.4095170000000001    2.5846510000000000
Fe      1.3396809999999999   -1.4269210000000001    3.1594880000000001
Fe     -2.1545969999999999    1.8944470000000000    4.8203009999999997
Fe     -0.9088020000000000   -0.2357080000000000    3.6594210000000000
Fe     -3.0037219999999998   -3.8155060000000001    2.9393910000000001
Fe     -0.8338280000000000   -2.3772859999999998    2.5574880000000002
Fe      1.3412750000000000    0.9082020000000000    3.1280169999999998
Fe     -4.5878639999999997    1.9280400000000000    4.3072340000000002
Fe     -0.7595090000000000   -4.3605320000000001    1.3734370000000000
Fe     -3.0497160000000001   -1.3974110000000000    2.8224499999999999
Fe      3.4756550000000002    1.7940700000000001    2.5246029999999999
Fe     -0.8917420000000000    3.8944899999999998    3.9249529999999999
Fe      1.2935420000000000    3.3312539999999999    3.1625100000000002
Fe      1.4521360000000001   -2.7648250000000001    1.1444840000000001
Fe     -5.2227040000000002   -0.2215070000000000    3.2006850000000000
Fe      2.7568429999999999   -0.2976030000000000    1.2614850000000000
Fe     -3.0530290000000000    0.9430190000000001    2.7859189999999998
Fe     -0.8076220000000000    1.8768359999999999    2.4949550000000000
Fe     -5.0760490000000003   -2.3191860000000002    1.9542180000000000
Fe      0.4437990000000000   -0.2917610000000000    1.2124230000000000
Fe     -2.9651790000000000    3.3458060000000001    2.8714569999999999
Fe     -2.9041060000000001   -2.7164880000000000    0.8361400000000000
Fe      1.4949980000000000    2.1727420000000000    1.1026750000000001
Fe     -1.8625730000000000   -0.2381920000000000    1.0283009999999999
Fe     -0.6597120000000000   -2.2211750000000001    0.1311860000000000
Fe      0.6410060000000000   -3.9307680000000000   -0.8812980000000000
Fe     -5.0375800000000002    1.8596180000000000    1.8474940000000000
Fe     -0.7339120000000000    3.8400870000000000    1.2402550000000001
Fe     -4.1680880000000000   -0.2496780000000000    0.7433560000000000
Fe     -1.8289080000000000   -3.9636700000000000   -0.9796950000000000
Fe      1.5802600000000000   -1.5713090000000001   -0.9155610000000000
Fe     -2.8374510000000002    2.2578030000000000    0.7762710000000000
Fe     -0.6149610000000000    1.6800189999999999    0.0760090000000000
Fe      1.6630360000000000    0.9124700000000000   -0.8675170000000000
Fe     -0.5206490000000000   -0.2904980000000000   -1.1353800000000001
Fe     -2.7105009999999998   -1.5317090000000000   -1.2227180000000000
Fe     -0.5334179999999999   -2.3276420000000000   -2.4015420000000001
Fe      0.6874730000000000    3.4342009999999998   -0.8120210000000000
Fe     -2.7023009999999998    0.9574700000000000   -1.2083090000000001
Fe     -1.8079240000000001    3.3334640000000002   -1.2591030000000001
Fe      0.9236980000000000   -0.3830720000000000   -2.9780950000000002
Fe     -0.2888650000000000    1.7594170000000000   -2.3767870000000002
Fe     -1.8646469999999999   -0.1770220000000000   -3.1215290000000002
