   78
 
C       4.5182300000000000    3.5475770000000000    1.8423069999999999
C       4.0663190000000000    5.1457699999999997    3.6158049999999999
C       5.3807039999999997    5.0051600000000001    4.0641090000000002
C       6.3052950000000001    1.6522010000000000    0.7250890000000000
C       3.6184590000000001    4.4253970000000002    2.4934289999999999
C       5.8105300000000000    3.3777420000000000    2.3093499999999998
C       6.2582360000000001    4.1288470000000004    3.4199329999999999
C      -0.0925670000000000    4.3645259999999997    1.6565140000000000
C       2.2882790000000002    4.4567319999999997    1.9233720000000001
C       1.0745800000000001    4.7808120000000001    2.4407160000000001
H       7.9684910000000002    3.3349859999999998    3.2713350000000001
H       2.2436370000000001    4.0426070000000003    0.9122720000000000
H       0.9035069999999999    5.1254119999999999    3.4611109999999998
H       4.1520260000000002    2.9789469999999998    0.9857030000000000
H       3.3929870000000002    5.8354939999999997    4.1258010000000001
H       5.7511820000000000    5.5722529999999999    4.9186370000000004
H       7.1684530000000004    1.0277900000000000    0.4718110000000000
H       5.4658930000000003    1.0186360000000001    1.0572850000000000
H       5.9963540000000002    2.2286790000000001   -0.1614250000000000
O       0.0947900000000000    4.0277409999999998    0.4097800000000000
O      -1.2374470000000000    4.2224329999999997    2.2222789999999999
O       7.5472630000000001    3.9978300000000000    3.8553370000000000
O       6.7502310000000003    2.5236820000000000    1.7787599999999999
Fe     -1.7092210000000001   -1.6328900000000000    3.2634020000000001
Fe     -1.5664570000000000   -5.7330690000000004    1.1558349999999999
Fe     -0.4748180000000000   -3.6718760000000001    2.1402329999999998
Fe     -2.7919489999999998   -3.7669700000000002    2.1264040000000000
Fe      0.6119019999999999   -1.4901789999999999    2.3837310000000000
Fe      1.9747230000000000   -3.5995409999999999    1.7846839999999999
Fe      1.7925230000000001    0.7407030000000000    1.7824610000000001
Fe      0.5443700000000000   -5.0583920000000004    0.2342500000000000
Fe      2.6032359999999999   -1.3933800000000001    0.7151260000000000
Fe     -0.6470810000000000    0.5765100000000000    2.1711410000000000
Fe     -4.0721579999999999   -1.7156220000000000    2.4076050000000002
Fe     -5.2361170000000001   -3.9225720000000002    1.8115580000000000
Fe      2.6085370000000001   -3.4772390000000000   -0.6101210000000000
Fe      0.5136970000000000   -2.6408119999999999    0.1680330000000000
Fe     -2.9619640000000000    0.4421600000000000    2.1608090000000000
Fe     -1.7252860000000001   -1.5810770000000001    0.8850140000000000
Fe     -3.7173319999999999   -5.2554369999999997    0.2436360000000000
Fe     -1.6406220000000000   -3.7029239999999999   -0.2702810000000000
Fe      0.4221350000000000   -0.3230300000000000    0.1622500000000000
Fe     -5.3996190000000004    0.4327480000000000    1.8373919999999999
Fe     -1.5607920000000000   -5.6874580000000003   -1.4893259999999999
Fe     -3.8777580000000000   -2.8370970000000000    0.1650900000000000
Fe      2.4636849999999999    0.6546460000000000   -0.6106000000000000
Fe     -1.9646640000000000    2.5441460000000000    1.4042370000000000
Fe      0.2669900000000000    2.0906729999999998    0.2264610000000000
Fe      0.5497460000000000   -3.9536720000000001   -1.8729530000000001
Fe     -6.0450109999999997   -1.7744869999999999    0.7577120000000001
Fe      1.7407040000000000   -1.4368980000000000   -1.8324140000000000
Fe     -3.9593799999999999   -0.5182160000000000    0.1859820000000000
Fe     -1.8162659999999999    0.5793770000000000   -0.2209180000000000
Fe     -5.8999210000000000   -3.8254779999999999   -0.5916370000000000
Fe     -0.5767590000000000   -1.5248409999999999   -1.6807790000000000
Fe     -3.9905719999999998    1.9120010000000001    0.3038760000000000
Fe     -3.8153220000000001   -4.1461519999999998   -1.8540829999999999
Fe      0.3722330000000000    0.9718860000000000   -1.8677750000000000
Fe     -2.8990160000000000   -1.6170119999999999   -1.6767950000000000
Fe     -1.6582859999999999   -3.5198930000000002   -2.6852559999999999
Fe     -0.3750330000000000   -5.2283860000000004   -3.7725939999999998
Fe     -6.0733879999999996    0.3126550000000000   -0.5302870000000000
Fe     -2.0026190000000001    2.5283140000000000   -1.4715119999999999
Fe     -5.2087649999999996   -1.7159510000000000   -1.8037790000000000
Fe     -2.7995239999999999   -5.3318240000000001   -3.7573360000000000
Fe      0.4325740000000000   -2.7149429999999999   -3.8997150000000000
Fe     -4.0453039999999998    0.7986400000000000   -1.8256570000000001
Fe     -1.8141529999999999    0.3924220000000000   -2.6443859999999999
Fe      0.3388110000000000   -0.2531120000000000   -3.8920550000000000
Fe     -1.7355020000000001   -1.5493070000000000   -3.9363039999999998
Fe     -3.8178690000000000   -2.8708710000000002   -3.8664109999999998
Fe     -1.6775080000000000   -3.6225589999999999   -5.1926220000000001
Fe     -0.6971190000000000    2.1897829999999998   -3.7544469999999999
Fe     -3.9152480000000001   -0.4063410000000000   -3.8784869999999998
Fe     -3.1271399999999998    2.1079759999999998   -3.7072900000000000
Fe     -0.5080160000000000   -1.5032350000000001   -5.9661249999999999
Fe     -1.8346870000000000    0.5143310000000000   -5.1693400000000000
Fe     -3.0230500000000000   -1.6074809999999999   -5.9449470000000000
