   78
 
C       0.8536710000000000    4.2656879999999999   -0.3835090000000000
C      -0.9872000000000000    4.1095300000000003    1.3286420000000001
C      -0.0045110000000000    4.3667400000000001    2.3673109999999999
C       3.7690679999999999    4.4408750000000001   -0.7489550000000000
C      -0.5522330000000000    4.1592549999999999   -0.0748530000000000
C       1.8377779999999999    4.1685210000000001    0.6837950000000000
C       1.3829910000000001    4.2839299999999998    2.0500699999999998
C      -3.6073059999999999    2.9988739999999998   -2.1590569999999998
C      -1.4057980000000001    3.7419280000000001   -1.1592890000000000
C      -2.7143180000000000    3.0845090000000002   -0.9351080000000001
H       3.1631809999999998    4.6504339999999997    2.5667380000000000
H      -1.2281180000000000    4.1895840000000000   -2.1414949999999999
H      -3.3161330000000002    3.5023430000000002   -0.1013170000000000
H       1.1666220000000000    4.6508669999999999   -1.3555299999999999
H      -2.0141220000000000    4.4303939999999997    1.5416700000000001
H      -0.2918910000000000    4.7113529999999999    3.3612050000000000
H       4.8400309999999998    4.6220319999999999   -0.5994060000000000
H       3.6065290000000001    3.4082620000000001   -1.1065309999999999
H       3.3765960000000002    5.1606579999999997   -1.4862899999999999
O      -2.9575170000000002    2.8197380000000001   -3.3152390000000000
O      -4.8326770000000003    3.1037840000000001   -2.0712269999999999
O       2.2951359999999998    4.6159559999999997    3.0209950000000001
O       3.1561740000000000    4.6373790000000001    0.5332170000000001
Fe     -0.0794230000000000   -1.5570500000000000    4.1897050000000000
Fe     -0.0873900000000000   -5.7629000000000001    2.3454739999999998
Fe      1.1075219999999999   -3.6526830000000001    3.1703730000000001
Fe     -1.2322090000000001   -3.6756090000000001    3.2054860000000001
Fe      2.3049900000000001   -1.5594030000000001    3.3014489999999999
Fe      3.5969869999999999   -3.6940279999999999    2.8122419999999999
Fe      3.5601799999999999    0.6054270000000000    2.5973020000000000
Fe      2.0338989999999999   -5.2095279999999997    1.3932460000000000
Fe      4.2275770000000001   -1.5860860000000001    1.5943870000000000
Fe      1.1049180000000001    0.4971720000000000    2.9894159999999999
Fe     -2.4538220000000002   -1.5664389999999999    3.3371559999999998
Fe     -3.6784569999999999   -3.7764099999999998    2.8947690000000001
Fe      4.1404220000000000   -3.8364769999999999    0.4387750000000000
Fe      2.1062740000000000   -2.7960400000000001    1.1502610000000000
Fe     -1.2307410000000001    0.5162030000000000    3.0371640000000002
Fe     -0.0972160000000000   -1.6031010000000001    1.8031569999999999
Fe     -2.2158590000000000   -5.2204519999999999    1.4086890000000001
Fe     -0.0986350000000000   -3.7906650000000002    0.8100579999999999
Fe      2.0913460000000001   -0.4495600000000000    1.0431990000000000
Fe     -3.6476180000000000    0.6114430000000000    2.7237510000000000
Fe     -0.1179580000000000   -5.8377540000000003   -0.2854150000000000
Fe     -2.2971029999999999   -2.7979949999999998    1.1870449999999999
Fe      4.1394960000000003    0.5420810000000000    0.2434090000000000
Fe     -0.0848520000000000    2.3868320000000001    2.1284700000000001
Fe      2.0252560000000002    2.0095839999999998    1.0126340000000000
Fe      2.0604800000000001   -4.2334889999999996   -0.7897960000000001
Fe     -4.4302830000000002   -1.6345400000000001    1.7482690000000001
Fe      3.3884420000000000   -1.7409870000000001   -0.8377980000000000
Fe     -2.2987270000000000   -0.4675560000000000    1.0776150000000000
Fe     -0.1000500000000000    0.4785400000000000    0.5563280000000000
Fe     -4.3635890000000002   -3.7685599999999999    0.5271140000000000
Fe      1.0524549999999999   -1.7340940000000000   -0.7761220000000000
Fe     -2.2248290000000002    1.9390529999999999    1.1265710000000000
Fe     -2.3205049999999998   -4.2058109999999997   -0.7653960000000000
Fe      2.1051940000000000    0.6904760000000000   -1.0427500000000001
Fe     -1.2781169999999999   -1.6960470000000001   -0.7250830000000000
Fe     -0.1342380000000000   -3.7646730000000002   -1.6088890000000000
Fe      1.1036269999999999   -5.5398959999999997   -2.6333899999999999
Fe     -4.3866449999999997    0.3404990000000000    0.3372700000000000
Fe      0.1706090000000000    2.3627620000000000   -0.9216720000000000
Fe     -3.5952259999999998   -1.7531390000000000   -0.8206520000000000
Fe     -1.3585520000000000   -5.5625119999999999   -2.5792480000000002
Fe      1.9942820000000001   -3.1040899999999998   -2.8867129999999999
Fe     -2.3145229999999999    0.8544670000000000   -0.9693580000000001
Fe     -0.1229930000000000    0.1721430000000000   -1.8713040000000001
Fe      1.9849980000000000   -0.6610880000000000   -3.0541999999999998
Fe     -0.1589880000000000   -1.8796780000000000   -2.9814010000000000
Fe     -2.2864580000000001   -3.0829170000000001   -2.8504109999999998
Fe     -0.1784940000000000   -3.9933709999999998   -4.1224949999999998
Fe      1.2230340000000000    1.7460210000000000   -3.0688680000000002
Fe     -2.2857530000000001   -0.5939280000000000   -2.9428529999999999
Fe     -1.4143129999999999    1.7380629999999999   -3.1421800000000002
Fe      1.1317530000000000   -2.0041159999999998   -4.9905780000000002
Fe     -0.1433330000000000    0.0992490000000000   -4.3952869999999997
Fe     -1.4727960000000000   -1.9199780000000000   -4.9447609999999997
