   93
 
C      -0.3646360000000000    2.6576270000000002   -4.7889970000000002
C       1.5431450000000000    1.2556130000000001   -4.3258140000000003
C      -2.3168570000000002    2.8577720000000002   -3.1847520000000000
C       1.7031570000000000   -0.1268330000000000   -2.2256570000000000
C      -2.7106620000000001    5.8266859999999996   -4.0485759999999997
C       3.3870119999999999   -2.7271820000000000   -2.6532350000000000
C       1.1811659999999999   -3.9845350000000002   -2.6428810000000000
C      -1.9615450000000001    6.4778089999999997   -1.7143450000000000
H      -1.8308020000000000    1.0317700000000001   -1.5638060000000000
C      -0.9910120000000000    2.2457919999999998   -3.6071110000000002
C       0.9623130000000000    0.8170580000000000   -3.1422360000000000
C      -0.3120980000000000    1.3167990000000001   -2.8041019999999999
C       0.8972580000000000    2.1731850000000001   -5.1791140000000002
O       2.5663790000000000    3.6346880000000001   -8.9305839999999996
O      -0.8644210000000000    0.8497180000000000   -1.6142240000000001
O       4.3220570000000000    2.2215340000000001   -8.6224930000000004
C       3.1243569999999998    2.7875230000000002   -8.2495689999999993
C      -2.2608210000000000    5.3648319999999998   -2.6858730000000000
C       1.8929590000000001   -2.6705459999999999   -2.4680390000000001
H       4.5545340000000003    2.6477580000000001   -9.4731690000000004
C       2.6570360000000002    2.2256250000000000   -6.9740900000000003
C       1.4868209999999999    2.6314030000000002   -6.4293440000000004
C       1.1827820000000000   -1.5384199999999999   -2.2333759999999998
C      -2.1086399999999998    4.0783019999999999   -2.3182510000000001
H       3.3010410000000001    1.4767889999999999   -6.5124800000000000
H       0.9223749999999999    3.3827379999999998   -6.9914490000000002
H       0.0937100000000000   -1.6389260000000001   -2.1393559999999998
H      -1.7541059999999999    3.8710550000000001   -1.3016060000000000
H      -0.8704460000000001    3.3871660000000001   -5.4257970000000002
H       2.5265659999999999    0.8619150000000000   -4.5869229999999996
H      -2.8906510000000001    3.1025209999999999   -4.0883620000000001
H      -2.9408710000000000    2.1236570000000001   -2.6399370000000002
H       2.7719719999999999   -0.0928050000000000   -2.4709810000000001
H       1.6053409999999999    0.2833390000000000   -1.1860940000000000
H      -3.5845630000000002    6.4925980000000001   -3.9621800000000000
H      -1.9170400000000001    6.4187760000000003   -4.5338469999999997
H      -2.9789330000000001    5.0091409999999996   -4.7279220000000004
H       3.8191120000000001   -3.4880230000000001   -1.9814060000000000
H       3.6365880000000002   -3.0353200000000000   -3.6831079999999998
H       3.8921800000000002   -1.7774160000000001   -2.4434640000000001
H       0.1061600000000000   -3.8993769999999999   -2.4329510000000001
H       1.3147890000000000   -4.3546550000000002   -3.6738789999999999
H       1.5912430000000000   -4.7598960000000003   -1.9704330000000001
H      -1.1741610000000000    7.1403350000000003   -2.1103700000000001
H      -2.8491860000000000    7.1109510000000000   -1.5521450000000001
H      -1.6290000000000000    6.0928969999999998   -0.7419020000000000
Fe     -2.3353459999999999   -3.4604539999999999   -0.4956570000000000
Fe     -2.2561629999999999   -3.2696749999999999    1.9031070000000001
Fe     -4.0979099999999997   -3.9999810000000000    3.3615659999999998
Fe     -2.2209970000000001   -3.3026380000000000    4.5085569999999997
Fe     -3.7193170000000002   -4.4626440000000001    5.7900820000000000
Fe     -2.3363930000000002   -3.3296090000000000    7.3396530000000002
Fe     -3.4157489999999999   -1.6002689999999999    0.5167220000000000
Fe     -1.9260640000000000   -0.4537840000000000    1.9003960000000000
Fe     -3.6938710000000001   -1.6324369999999999    3.0442610000000001
Fe     -2.1346010000000000   -0.5858660000000000    4.6495280000000001
Fe     -3.7499790000000002   -1.9659549999999999    5.7659289999999999
Fe     -2.2540589999999998   -0.7376819999999999    7.4424020000000004
Fe     -3.4836019999999999    0.9295050000000000    0.9777310000000000
Fe     -1.8308480000000000    2.2592249999999998    2.0409799999999998
Fe     -3.5065890000000000    0.8966030000000000    3.3993250000000002
Fe     -1.9917260000000001    2.1857810000000000    4.7531390000000000
Fe     -3.4929709999999998    0.6814000000000000    5.9828729999999997
Fe     -0.6892370000000000   -4.6880559999999996    0.6347870000000000
Fe      0.5867460000000000   -3.3357790000000000    1.9693200000000000
Fe     -0.8459230000000000   -4.8605850000000004    3.2501289999999998
Fe      0.4770280000000000   -3.4716670000000001    4.6644889999999997
Fe     -1.0609420000000001   -4.8657959999999996    5.8935730000000000
Fe      0.3212590000000000   -3.5137429999999998    7.4740529999999996
Fe     -0.7197370000000000   -1.9881200000000001    0.4163590000000000
Fe      0.7469800000000000   -0.6325600000000000    1.9714799999999999
Fe     -0.7397930000000000   -1.9311620000000000    3.2970150000000000
Fe      0.6660030000000000   -0.6731720000000000    4.8173870000000001
Fe     -0.8610790000000000   -2.0405030000000002    6.0876500000000000
Fe      0.4684730000000000   -0.8496899999999999    7.6134800000000000
Fe     -0.4419960000000000    0.8702950000000000    0.5712850000000000
Fe      0.8696410000000000    2.1577130000000002    2.1293289999999998
Fe     -0.5854140000000000    0.8560850000000000    3.4275859999999998
Fe      0.7732710000000000    2.0958739999999998    4.9048720000000001
Fe     -0.7384400000000000    0.7291430000000000    6.2060959999999996
Fe      1.9677119999999999   -4.6971299999999996    0.7642630000000000
Fe      3.3908849999999999   -3.4197479999999998    2.0982240000000001
Fe      1.8201110000000000   -4.9460119999999996    3.3116800000000000
Fe      3.2620890000000000   -3.5948229999999999    4.7800539999999998
Fe      1.5952940000000000   -4.9529779999999999    5.9523739999999998
Fe      2.0421969999999998   -2.0643549999999999    0.5452520000000000
Fe      3.5379049999999999   -0.8017960000000000    2.1479620000000001
Fe      2.0599289999999999   -2.0745830000000001    3.4415170000000002
Fe      3.4474170000000002   -0.8982240000000000    4.9208780000000001
Fe      1.9072229999999999   -2.1962760000000001    6.2155120000000004
Fe      2.2414170000000002    0.6492530000000000    0.8156500000000000
Fe      2.1877580000000001    0.6828740000000000    3.5322450000000001
Fe      2.0278049999999999    0.5425650000000000    6.3011369999999998
