   93
 
C       2.0362670000000000   -2.1684999999999999    1.2516000000000000
C       0.3761850000000000   -3.0843219999999998   -0.3323130000000000
C       1.5929040000000001   -2.1461399999999999    3.7652169999999998
C      -1.7600670000000000   -4.1811809999999996    0.5150330000000000
C       4.5832800000000002   -2.1686779999999999    4.5789609999999996
C      -3.5122239999999998   -4.0990279999999997   -2.0557240000000001
C      -5.1724449999999997   -2.7179180000000001   -0.7316240000000001
C       4.2575589999999996   -4.5923170000000004    5.2704420000000001
H      -0.7130720000000000   -2.8407380000000000    3.8645019999999999
C       1.1005270000000000   -2.3287019999999998    2.3326509999999998
C      -0.5073010000000000   -3.3615729999999999    0.7411660000000000
C      -0.1625620000000000   -2.9389620000000001    2.0348299999999999
C       1.6596379999999999   -2.5249259999999998   -0.1108220000000000
O       4.1888370000000004   -0.8155559999999999   -3.1378780000000002
O      -1.0662799999999999   -3.2080679999999999    3.0337630000000000
O       3.3332799999999998   -2.1992530000000001   -4.7685930000000001
C       3.2726210000000000   -1.6829879999999999   -3.4824690000000000
C       3.6459519999999999   -3.3451749999999998    4.6841609999999996
C      -3.8456910000000000   -3.4233870000000000   -0.7518020000000000
H       4.0087060000000001   -1.6562429999999999   -5.2259919999999997
C       2.3456880000000000   -2.3120039999999999   -2.5790080000000000
C       2.5681790000000002   -2.1387220000000000   -1.1576290000000000
C      -3.0445340000000001   -3.4139860000000000    0.3336840000000000
C       2.3516949999999999   -3.3276690000000002    4.3110559999999998
H       1.7567150000000000   -3.1451850000000001   -2.9752489999999998
H       3.5830730000000002   -1.8657390000000000   -0.8529580000000000
H      -3.3841410000000001   -2.8571780000000002    1.2138439999999999
H       1.7768780000000000   -4.2554489999999996    4.4069419999999999
H       3.1007530000000001   -2.0967519999999999    1.4929410000000001
H       0.0969480000000000   -3.4204569999999999   -1.3321689999999999
H       2.2121930000000001   -1.2381830000000000    3.7999070000000001
H       0.7454080000000000   -1.9025930000000000    4.4361110000000004
H      -1.5805320000000000   -4.8394290000000000   -0.3459680000000000
H      -1.8924980000000000   -4.8414940000000000    1.3887110000000000
H       4.9125949999999996   -1.8403680000000000    5.5787079999999998
H       5.4950330000000003   -2.4577589999999998    4.0319580000000004
H       4.1489099999999999   -1.3013170000000001    4.0677089999999998
H      -4.3239840000000003   -4.7681649999999998   -2.3832160000000000
H      -3.3942850000000000   -3.3363499999999999   -2.8555980000000001
H      -2.5774580000000000   -4.6701829999999998   -2.0289730000000001
H      -5.3921859999999997   -2.2846169999999999    0.2525990000000000
H      -5.1917859999999996   -1.8876569999999999   -1.4734309999999999
H      -5.9918979999999999   -3.4015290000000000   -1.0088699999999999
H       5.1232990000000003   -4.9303109999999997    4.6775849999999997
H       4.6327860000000003   -4.3978549999999998    6.2893840000000001
H       3.5332140000000001   -5.4152509999999996    5.3247739999999997
Fe     -3.2771720000000002   -0.7660490000000000   -2.9012250000000002
Fe     -2.5191450000000000    1.4600830000000000   -2.7657039999999999
Fe     -4.2886839999999999    0.7140630000000000   -1.3295640000000000
Fe     -2.6316269999999999    1.6322099999999999   -0.0239520000000000
Fe     -4.1211430000000000    0.5699640000000000    1.3084549999999999
Fe     -2.6967010000000000    1.7279590000000000    2.7913770000000002
Fe     -3.7191689999999999    3.0929340000000001   -3.9507080000000001
Fe     -2.0628160000000002    4.1960759999999997   -2.7983159999999998
Fe     -3.9213390000000001    3.1894220000000000   -1.5092770000000000
Fe     -2.2272270000000001    4.2963849999999999   -0.0569730000000000
Fe     -3.9155039999999999    3.2299829999999998    1.1995140000000000
Fe     -2.3184760000000000    4.3296849999999996    2.7329900000000000
Fe     -3.3206340000000001    5.7267630000000000   -3.9065770000000000
Fe     -1.6213460000000000    6.9354950000000004   -2.7831820000000000
Fe     -3.4256440000000001    5.7873939999999999   -1.4514300000000000
Fe     -1.7221290000000000    7.0327440000000001   -0.1402820000000000
Fe     -3.3924080000000001    5.8444950000000002    1.1693780000000000
Fe     -1.0324210000000000   -0.6770760000000000   -3.5310969999999999
Fe      0.1213330000000000    1.1238210000000000   -2.6656390000000001
Fe     -1.6021129999999999   -0.2446270000000000   -1.1797340000000001
Fe      0.0124050000000000    1.0949670000000000    0.0666810000000000
Fe     -1.6374860000000000   -0.0266350000000000    1.4668110000000001
Fe     -0.0823670000000000    1.2152860000000001    2.8857879999999998
Fe     -0.9718260000000000    2.5561550000000000   -4.2194550000000000
Fe      0.5988160000000000    3.7517779999999998   -2.7654230000000002
Fe     -0.9938490000000000    2.6831320000000001   -1.3382609999999999
Fe      0.5669450000000000    3.8491029999999999    0.0808540000000000
Fe     -1.0924080000000000    2.7723800000000001    1.4618530000000001
Fe      0.4138050000000000    3.9135559999999998    2.8616990000000002
Fe     -0.5126110000000000    5.3101550000000000   -4.2142710000000001
Fe      1.0511219999999999    6.4883100000000002   -2.7574670000000001
Fe     -0.5310049999999999    5.4298630000000001   -1.3733519999999999
Fe      0.9655080000000000    6.5945159999999996    0.0024650000000000
Fe     -0.6524060000000000    5.4993369999999997    1.4055880000000001
Fe      1.4650980000000000   -0.5407080000000000   -3.6132200000000001
Fe      3.1166900000000002    0.7136890000000000   -2.4866100000000002
Fe      1.1213480000000000   -0.6746280000000000   -1.2868590000000000
Fe      2.7238150000000001    0.6131920000000000    0.1195730000000000
Fe      0.9290550000000000   -0.4216450000000000    1.4656870000000000
Fe      1.8092950000000001    2.1127750000000001   -4.0314629999999996
Fe      3.3686720000000001    3.2908620000000002   -2.5684619999999998
Fe      1.7435730000000000    2.2094060000000000   -1.2428129999999999
Fe      3.2950800000000000    3.2500529999999999    0.1235750000000000
Fe      1.6212640000000000    2.2490340000000000    1.5554790000000001
Fe      2.1390889999999998    4.7527629999999998   -4.0770890000000000
Fe      2.2057850000000001    4.9610459999999996   -1.2820350000000000
Fe      2.0947819999999999    4.9803889999999997    1.4647209999999999
