   93
 
C       1.7214680000000000    2.9948920000000001    2.9317700000000002
C       3.9818519999999999    2.3873780000000000    3.5029560000000002
C       0.3264620000000000    1.6438260000000000    1.3392740000000001
C       5.1411340000000001    0.3901140000000000    2.4801600000000001
C      -2.4844400000000002    1.6926509999999999    2.6389939999999998
C       7.7968289999999998    2.0117980000000002    2.7341820000000001
C       7.8901579999999996    2.0181190000000000    0.1972400000000000
C      -1.7829290000000000   -0.4649440000000000    3.8112080000000002
H       1.8948760000000000   -0.1406530000000000    0.5987930000000000
C       1.6244959999999999    1.9053400000000000    2.0668590000000000
C       3.9282770000000000    1.2874540000000001    2.6545519999999998
C       2.7411500000000002    1.0510489999999999    1.9198820000000001
C       2.8954200000000001    3.2724600000000001    3.6555330000000001
O       2.8323879999999999    6.8854920000000002    6.0432499999999996
O       2.7499229999999999   -0.0323590000000000    1.0918650000000001
O       5.0489860000000002    6.6138389999999996    6.4659789999999999
C       3.8522340000000002    6.2232789999999998    5.9074510000000000
C      -1.6425209999999999    0.4359350000000000    2.5908810000000000
C       7.1578080000000002    1.5770210000000000    1.4396409999999999
H       4.8462630000000004    7.4536350000000002    6.9289889999999996
C       4.0026729999999997    4.9757140000000000    5.1493270000000004
C       2.9396149999999999    4.4617160000000000    4.4856660000000002
C       6.0159320000000003    0.8692210000000000    1.3453450000000000
C      -0.3752190000000000    0.3910240000000000    1.8818310000000000
H       4.9941490000000002    4.5221819999999999    5.1366839999999998
H       2.0060959999999999    5.0286049999999998    4.5684319999999996
H       5.6349210000000003    0.6433190000000000    0.3443210000000000
H       0.3444410000000000   -0.3220150000000000    2.3014380000000001
H       0.8616770000000000    3.6600950000000001    3.0404909999999998
H       4.9056620000000004    2.5653079999999999    4.0558500000000004
H      -0.3247910000000000    2.5216400000000001    1.4278500000000001
H       0.6210690000000000    1.6538839999999999    0.2165980000000000
H       5.6970749999999999    0.3677960000000000    3.4272570000000000
H       4.8084800000000003   -0.6376900000000000    2.2750970000000001
H      -3.5538120000000002    1.4561789999999999    2.7658399999999999
H      -2.1865470000000000    2.3288769999999999    3.4971299999999998
H      -2.4007179999999999    2.2981120000000002    1.7203430000000000
H       8.8569879999999994    1.7121900000000001    2.7658839999999998
H       7.7819870000000000    3.1115680000000001    2.8189350000000002
H       7.3057280000000002    1.6018760000000001    3.6247240000000001
H       7.3729339999999999    1.6955960000000001   -0.7155680000000000
H       7.9874320000000001    3.1162800000000002    0.1674930000000000
H       8.9154309999999999    1.6128050000000000    0.1756750000000000
H      -1.3982850000000000    0.0386740000000000    4.7182860000000000
H      -2.8376120000000000   -0.7245930000000000    3.9975369999999999
H      -1.2239800000000001   -1.4081269999999999    3.7018540000000000
Fe     -4.8405500000000004   -4.2409210000000002   -6.8366160000000002
Fe     -4.7878610000000004   -3.8402010000000000   -4.4252399999999996
Fe     -5.9796529999999999   -5.1373759999999997   -2.8408989999999998
Fe     -4.6552680000000004   -3.7062130000000000   -1.6156960000000000
Fe     -5.7987599999999997   -5.0268069999999998   -0.1668810000000000
Fe     -4.4955460000000000   -3.5882930000000002    1.1780189999999999
Fe     -5.5918890000000001   -2.0848879999999999   -6.3208279999999997
Fe     -4.7878220000000002   -1.1471730000000000   -4.3520430000000001
Fe     -6.2214039999999997   -2.4914040000000002   -2.9928180000000002
Fe     -4.7269940000000004   -1.0209260000000000   -1.6935359999999999
Fe     -6.0863800000000001   -2.3336839999999999   -0.2484090000000000
Fe     -4.5750070000000003   -0.9490070000000000    1.0832090000000001
Fe     -5.9952209999999999    0.2671120000000000   -5.7655669999999999
Fe     -4.6399689999999998    1.6653430000000000   -4.4761670000000002
Fe     -6.1205759999999998    0.3459250000000000   -3.0698629999999998
Fe     -4.5910599999999997    1.7944960000000001   -1.8051450000000000
Fe     -5.9684710000000001    0.3575570000000000   -0.4109940000000000
Fe     -3.2721239999999998   -5.3901380000000003   -5.5245449999999998
Fe     -2.0070679999999999   -3.8768340000000001   -4.3426900000000002
Fe     -3.4651239999999999   -5.3426280000000004   -2.9751189999999998
Fe     -1.9431630000000000   -3.8187000000000002   -1.6769360000000000
Fe     -3.2611040000000000   -5.1818929999999996   -0.2422440000000000
Fe     -1.8502310000000000   -3.6279370000000002    1.1148060000000000
Fe     -3.2754300000000001   -2.6358959999999998   -5.9993390000000000
Fe     -2.0161129999999998   -1.1672530000000001   -4.5398149999999999
Fe     -3.3126240000000000   -2.4205980000000000   -3.0414450000000000
Fe     -1.8739580000000000   -1.0005459999999999   -1.7427230000000000
Fe     -3.2135710000000000   -2.3044600000000002   -0.2604820000000000
Fe     -1.8412350000000000   -0.8998090000000000    1.0704819999999999
Fe     -3.5341480000000001    0.0065520000000000   -6.0308400000000004
Fe     -2.0424060000000002    1.5954520000000001   -4.6794650000000004
Fe     -3.2863430000000000    0.3505830000000000   -3.1337429999999999
Fe     -1.8853789999999999    1.7902810000000000   -1.9128499999999999
Fe     -3.2194980000000002    0.4536840000000000   -0.3869740000000000
Fe     -0.6800760000000000   -5.1676869999999999   -5.6713380000000004
Fe      0.7932850000000000   -3.8551060000000001   -4.4061089999999998
Fe     -0.6661800000000000   -5.3053920000000003   -3.0002810000000002
Fe      0.8588410000000000   -3.8102960000000001   -1.7605810000000000
Fe     -0.6113769999999999   -5.0972749999999998   -0.3487420000000000
Fe     -0.6912910000000000   -2.6156940000000000   -5.9551509999999999
Fe      0.7647060000000000   -1.1674720000000001   -4.6232350000000002
Fe     -0.5078640000000000   -2.4348920000000001   -3.1055429999999999
Fe      0.9143000000000000   -1.0374680000000001   -1.8658079999999999
Fe     -0.4387770000000000   -2.3556900000000001   -0.3632590000000000
Fe     -0.8311690000000000    0.0297400000000000   -6.0336360000000004
Fe     -0.5236340000000000    0.3319080000000000   -3.2551679999999998
Fe     -0.4899700000000000    0.3453600000000000   -0.4415290000000000
