   93
 
C       1.6017440000000001   -5.6859869999999999    0.6942950000000000
C       1.7154920000000000   -4.3803039999999998   -1.3318230000000000
C      -0.3483450000000000   -7.2164180000000000    1.2041720000000000
C      -0.1443220000000000   -4.4039130000000002   -3.0462630000000002
C       1.0783339999999999   -9.4654109999999996    2.8482639999999999
C       0.5105250000000000   -1.4171769999999999   -3.7161710000000001
C      -1.7725310000000001   -0.8559909999999999   -2.7782779999999998
C       0.7545030000000000  -10.9661439999999999    0.8263580000000000
H      -1.7985230000000001   -6.8074370000000002   -0.6569739999999999
C       0.3571810000000000   -6.1971179999999997    0.3259940000000000
C       0.4807780000000000   -4.8676630000000003   -1.7429779999999999
C      -0.1984080000000000   -5.7723730000000000   -0.8972940000000000
C       2.3025449999999998   -4.7669139999999999   -0.1092930000000000
O       6.1023110000000003   -3.3601930000000002    1.4450060000000000
O      -1.4223110000000001   -6.2163760000000003   -1.3335319999999999
O       6.2737100000000003   -1.9656600000000000   -0.3428820000000000
C       5.6317149999999998   -2.9305180000000002    0.3999790000000000
C       0.5412580000000000   -9.6092169999999992    1.4482480000000000
C      -0.7699120000000000   -1.9244319999999999   -3.1082960000000002
H       7.0950100000000003   -1.7686729999999999    0.1544780000000000
C       4.3683379999999996   -3.3283380000000000   -0.2316700000000000
C       3.5798860000000001   -4.2579490000000000    0.3576040000000000
C      -1.0433010000000000   -3.2125560000000002   -2.8255309999999998
C      -0.0803630000000000   -8.6345679999999998    0.7571790000000000
H       4.1114509999999997   -2.8366820000000001   -1.1703730000000001
H       3.9459680000000001   -4.6685470000000002    1.3046679999999999
H      -2.0014379999999998   -3.4380760000000001   -2.3459970000000001
H      -0.3992400000000000   -8.8723620000000007   -0.2643740000000000
H       2.0454430000000001   -6.0071009999999996    1.6398400000000000
H       2.2345389999999998   -3.6763740000000000   -1.9844189999999999
H      -0.0286470000000000   -7.0621349999999996    2.2427389999999998
H      -1.4395750000000000   -7.0240580000000001    1.2209209999999999
H       0.6591690000000000   -4.1676330000000004   -3.7564579999999999
H      -0.7319400000000000   -5.2248929999999998   -3.4826310000000000
H       0.6092160000000000  -10.2023379999999992    3.5200290000000001
H       2.1607940000000001   -9.6712629999999997    2.8658109999999999
H       0.9200760000000000   -8.4706609999999998    3.2806929999999999
H       0.3032260000000000   -0.7818870000000000   -4.5928380000000004
H       1.0460430000000001   -0.7773180000000000   -2.9888569999999999
H       1.1924129999999999   -2.2162660000000001   -4.0301760000000000
H      -2.6876739999999999   -1.2445870000000001   -2.3127149999999999
H      -1.3280959999999999   -0.1369050000000000   -2.0421010000000002
H      -2.0657920000000001   -0.2811570000000000   -3.6774119999999999
H       1.8285149999999999  -11.2102240000000002    0.7787510000000000
H       0.2799260000000000  -11.7569619999999997    1.4300919999999999
H       0.3465130000000000  -11.0182570000000002   -0.1913090000000000
Fe     -3.9055740000000001    2.2690739999999998   -2.3393999999999999
Fe     -2.6227589999999998    3.4934200000000000   -1.0859580000000000
Fe     -4.0358739999999997    2.0504069999999999    0.2607020000000000
Fe     -2.6761480000000000    3.4282539999999999    1.5485670000000000
Fe     -3.9521419999999998    2.1348360000000000    2.9092929999999999
Fe     -2.6403349999999999    3.4515660000000001    4.3420629999999996
Fe     -4.0389889999999999    4.8433729999999997   -2.5268890000000002
Fe     -2.6708249999999998    6.1152009999999999   -1.1376860000000000
Fe     -4.2820720000000003    4.6860879999999998    0.1186760000000000
Fe     -2.7654980000000000    6.1265109999999998    1.5645480000000000
Fe     -4.1751199999999997    4.7437120000000004    2.8817750000000002
Fe     -2.7113570000000000    6.1133420000000003    4.3532440000000001
Fe     -3.9499330000000001    7.4822179999999996   -2.4247529999999999
Fe     -2.6371519999999999    8.9093579999999992   -1.1081289999999999
Fe     -4.1729469999999997    7.4440609999999996    0.1817510000000000
Fe     -2.7098249999999999    8.9174439999999997    1.5521529999999999
Fe     -4.0671650000000001    7.4438829999999996    2.8802770000000000
Fe     -1.2804080000000000    2.0407479999999998   -2.4822069999999998
Fe      0.0102170000000000    3.4275150000000001   -1.1451499999999999
Fe     -1.4162699999999999    1.8282710000000000    0.1306080000000000
Fe      0.0308510000000000    3.3279480000000001    1.5604570000000000
Fe     -1.3528890000000000    1.9167240000000001    2.8746980000000000
Fe      0.0186550000000000    3.3756189999999999    4.3491960000000001
Fe     -1.4177789999999999    4.6779770000000003   -2.7529560000000002
Fe      0.0298650000000000    6.1253729999999997   -1.2339709999999999
Fe     -1.2666130000000000    4.8264149999999999    0.2665700000000000
Fe      0.0950130000000000    6.1887549999999996    1.6264810000000001
Fe     -1.2979130000000001    4.7946220000000004    3.0136500000000002
Fe      0.0427250000000000    6.1324600000000000    4.4015199999999997
Fe     -1.3518690000000000    7.4391319999999999   -2.6461090000000000
Fe      0.0182780000000000    8.9141329999999996   -1.1844150000000000
Fe     -1.2962760000000000    7.5776380000000003    0.2338730000000000
Fe      0.0415020000000000    8.9693909999999999    1.5724240000000000
Fe     -1.3238280000000000    7.5664290000000003    3.0031940000000001
Fe      1.3673569999999999    2.1407530000000001   -2.4351840000000000
Fe      2.8064900000000002    3.4480590000000002   -1.1106419999999999
Fe      1.3339440000000000    1.9121820000000000    0.1661720000000000
Fe      2.8177180000000002    3.3761999999999999    1.5450940000000000
Fe      1.3424810000000000    2.0146500000000001    2.8703820000000002
Fe      1.3420870000000000    4.7415279999999997   -2.6439149999999998
Fe      2.8197700000000001    6.1101570000000001   -1.1814020000000001
Fe      1.4810010000000000    4.7943420000000003    0.2316350000000000
Fe      2.8712890000000000    6.1303690000000000    1.5723400000000001
Fe      1.4710070000000000    4.7656520000000002    3.0002849999999999
Fe      1.3452590000000000    7.4393659999999997   -2.5395660000000002
Fe      1.4717450000000001    7.5639430000000001    0.2063350000000000
Fe      1.4441050000000000    7.5379199999999997    2.9758890000000000
